<?xml version="1.0" encoding="UTF-8"?>

<!-- generated on 2025-02-12 16:56:03.401977 by osmWebWizard.py v1_21_0+1021-4606c0d7274
<configuration>
    <net-file value="/Users/dhrishajgarg/sumo/tools/2025-02-12-16-55-41/osm.net.xml.gz"/>
    <output-trip-file value="/Users/dhrishajgarg/sumo/tools/2025-02-12-16-55-41/osm.passenger.trips.xml"/>
    <route-file value="/Users/dhrishajgarg/sumo/tools/2025-02-12-16-55-41/osm.passenger.rou.xml"/>
    <prefix value="veh"/>
    <trip-attributes value="departLane=&quot;best&quot;"/>
    <fringe-start-attributes value="departSpeed=&quot;max&quot;"/>
    <vehicle-class value="passenger"/>
    <lanes value="True"/>
    <fringe-factor value="5"/>
    <allow-fringe.min-length value="1000.0"/>
    <via-edge-types value="highway.motorway,highway.motorway_link,highway.trunk_link,highway.primary_link,highway.secondary_link,highway.tertiary_link"/>
    <min-distance value="300.0"/>
    <min-distance.fringe value="10.0"/>
    <remove-loops value="True"/>
    <validate value="True"/>
    <insertion-density value="12.0"/>
</configuration>
-->

<!-- generated on 2025-02-12 16:56:03 by Eclipse SUMO duarouter Version v1_21_0+1021-4606c0d7274
<duarouterConfiguration xmlns:xsi="http://www.w3.org/2001/XMLSchema-instance" xsi:noNamespaceSchemaLocation="http://sumo.dlr.de/xsd/duarouterConfiguration.xsd">

    <input>
        <net-file value="/Users/dhrishajgarg/sumo/tools/2025-02-12-16-55-41/osm.net.xml.gz"/>
        <route-files value="/Users/dhrishajgarg/sumo/tools/2025-02-12-16-55-41/osm.passenger.trips.xml"/>
    </input>

    <output>
        <output-file value="/Users/dhrishajgarg/sumo/tools/2025-02-12-16-55-41/osm.passenger.trips.xml.tmp"/>
        <alternatives-output value="NUL"/>
        <write-trips value="true"/>
    </output>

    <processing>
        <remove-loops value="true"/>
    </processing>

    <time>
        <begin value="0.0"/>
        <end value="3600.0"/>
    </time>

    <report>
        <no-warnings value="true"/>
        <ignore-errors value="true"/>
        <no-step-log value="true"/>
    </report>

</duarouterConfiguration>
-->

<routes xmlns:xsi="http://www.w3.org/2001/XMLSchema-instance" xsi:noNamespaceSchemaLocation="http://sumo.dlr.de/xsd/routes_file.xsd">
    <vType id="veh_passenger" vClass="passenger"/>
    <trip id="veh0" type="veh_passenger" depart="0.00" departLane="best" from="380081448#12" to="-1271523283"/>
    <trip id="veh1" type="veh_passenger" depart="2.56" departLane="best" from="1225611660#5" to="1101850027#1"/>
    <trip id="veh2" type="veh_passenger" depart="5.13" departLane="best" from="-486230763#12" to="462356798#28"/>
    <trip id="veh3" type="veh_passenger" depart="7.69" departLane="best" from="854442449#14" to="-28297727#3"/>
    <trip id="veh4" type="veh_passenger" depart="10.25" departLane="best" departSpeed="max" from="273924630#0" to="-190551089"/>
    <trip id="veh5" type="veh_passenger" depart="12.81" departLane="best" from="1021559402#3" to="28368656#7"/>
    <trip id="veh6" type="veh_passenger" depart="15.38" departLane="best" from="-162566118#1" to="854442449#8"/>
    <trip id="veh7" type="veh_passenger" depart="17.94" departLane="best" from="39685249#7" to="28559213#3"/>
    <trip id="veh8" type="veh_passenger" depart="20.50" departLane="best" from="-1101850023#0" to="30709224#2"/>
    <trip id="veh9" type="veh_passenger" depart="23.07" departLane="best" from="600354683#1" to="-1101850024"/>
    <trip id="veh10" type="veh_passenger" depart="25.63" departLane="best" from="600354682#4" to="46835724#1"/>
    <trip id="veh11" type="veh_passenger" depart="28.19" departLane="best" departSpeed="max" from="199311773#0" to="477208098"/>
    <trip id="veh12" type="veh_passenger" depart="30.76" departLane="best" from="977465926#4" to="198413522#5"/>
    <trip id="veh13" type="veh_passenger" depart="33.32" departLane="best" from="28402282#0" to="-28412347#1"/>
    <trip id="veh14" type="veh_passenger" depart="35.88" departLane="best" from="726600940#0" to="31716810#5"/>
    <trip id="veh15" type="veh_passenger" depart="38.44" departLane="best" from="600354682#7" to="477208098"/>
    <trip id="veh16" type="veh_passenger" depart="41.01" departLane="best" from="28559213#2" to="978085966#15"/>
    <trip id="veh17" type="veh_passenger" depart="43.57" departLane="best" from="256838382#7" to="28622946#0"/>
    <trip id="veh18" type="veh_passenger" depart="46.13" departLane="best" from="600354692#19" to="33884442#3"/>
    <trip id="veh19" type="veh_passenger" depart="48.70" departLane="best" from="726600963#1" to="559490478#2"/>
    <trip id="veh20" type="veh_passenger" depart="51.26" departLane="best" from="476097603#3" to="-198413520#4"/>
    <trip id="veh21" type="veh_passenger" depart="53.82" departLane="best" from="1101850027#3" to="1309504668#1"/>
    <trip id="veh22" type="veh_passenger" depart="56.39" departLane="best" from="28143359#13" to="1101850034"/>
    <trip id="veh23" type="veh_passenger" depart="58.95" departLane="best" from="-28412350#8" to="1225611660#1"/>
    <trip id="veh24" type="veh_passenger" depart="61.51" departLane="best" from="379748559#5" to="217634892#2"/>
    <trip id="veh25" type="veh_passenger" depart="64.07" departLane="best" from="256464040#2" to="967500679#0"/>
    <trip id="veh26" type="veh_passenger" depart="66.64" departLane="best" from="-1188558524" to="966474540"/>
    <trip id="veh27" type="veh_passenger" depart="69.20" departLane="best" from="39685249#1" to="318977730#6"/>
    <trip id="veh28" type="veh_passenger" depart="71.76" departLane="best" from="-548794342" to="476097676#8"/>
    <trip id="veh29" type="veh_passenger" depart="74.33" departLane="best" from="-486230761#9" to="256464040#3"/>
    <trip id="veh30" type="veh_passenger" depart="76.89" departLane="best" from="318977730#7" to="1309504666#0"/>
    <trip id="veh31" type="veh_passenger" depart="79.45" departLane="best" from="963225381#0" to="465069431#7"/>
    <trip id="veh32" type="veh_passenger" depart="82.01" departLane="best" from="66705748#2" to="58413931#1"/>
    <trip id="veh33" type="veh_passenger" depart="84.58" departLane="best" from="1101850027#7" to="-190551093#3"/>
    <trip id="veh34" type="veh_passenger" depart="87.14" departLane="best" from="198413498#0" to="117527607"/>
    <trip id="veh35" type="veh_passenger" depart="89.70" departLane="best" from="-974027183#1" to="973565732#3"/>
    <trip id="veh36" type="veh_passenger" depart="92.27" departLane="best" from="772134673#13" to="-190881208#3"/>
    <trip id="veh37" type="veh_passenger" depart="94.83" departLane="best" from="41202540#0" to="267676656#5"/>
    <trip id="veh38" type="veh_passenger" depart="97.39" departLane="best" from="895416011#2" to="27580563#3"/>
    <trip id="veh39" type="veh_passenger" depart="99.96" departLane="best" from="117342833#6" to="1132385601#3"/>
    <trip id="veh40" type="veh_passenger" depart="102.52" departLane="best" from="31714632#17" to="854442449#7"/>
    <trip id="veh41" type="veh_passenger" depart="105.08" departLane="best" from="273034617#6" to="1101850022#0"/>
    <trip id="veh42" type="veh_passenger" depart="107.64" departLane="best" from="981951791#2" to="28401561#0"/>
    <trip id="veh43" type="veh_passenger" depart="110.21" departLane="best" from="-28382576#2" to="-198413522#0"/>
    <trip id="veh44" type="veh_passenger" depart="112.77" departLane="best" from="-28559216#1" to="34634619#1"/>
    <trip id="veh45" type="veh_passenger" depart="115.33" departLane="best" from="592012033#22" to="273924626#1"/>
    <trip id="veh46" type="veh_passenger" depart="117.90" departLane="best" from="-268601755" to="256838382#11"/>
    <trip id="veh47" type="veh_passenger" depart="120.46" departLane="best" from="981951790#5" to="28412351#2"/>
    <trip id="veh48" type="veh_passenger" depart="123.02" departLane="best" from="27580563#16" to="726600957#0"/>
    <trip id="veh49" type="veh_passenger" depart="125.59" departLane="best" from="-1101850040#0" to="592012033#4"/>
    <trip id="veh50" type="veh_passenger" depart="128.15" departLane="best" from="465069434#13" to="28412365#1"/>
    <trip id="veh51" type="veh_passenger" depart="130.71" departLane="best" from="1184375310#1" to="379748559#2"/>
    <trip id="veh52" type="veh_passenger" depart="133.27" departLane="best" from="-288051975" to="273924632#12"/>
    <trip id="veh53" type="veh_passenger" depart="135.84" departLane="best" from="27580563#20" to="977465924#1"/>
    <trip id="veh54" type="veh_passenger" depart="138.40" departLane="best" from="772134673#12" to="117342833#21"/>
    <trip id="veh55" type="veh_passenger" depart="140.96" departLane="best" from="-28382576#4" to="-550582601#1"/>
    <trip id="veh56" type="veh_passenger" depart="143.53" departLane="best" from="32062678" to="-476097653#4"/>
    <trip id="veh57" type="veh_passenger" depart="146.09" departLane="best" from="557248345#1" to="28412367#3"/>
    <trip id="veh58" type="veh_passenger" depart="148.65" departLane="best" from="586187434#25" to="28412354#1"/>
    <trip id="veh59" type="veh_passenger" depart="151.21" departLane="best" from="-1021559402#0" to="-198413479"/>
    <trip id="veh60" type="veh_passenger" depart="153.78" departLane="best" from="-1188589486#0" to="963225381#0"/>
    <trip id="veh61" type="veh_passenger" depart="156.34" departLane="best" from="772134673#19" to="600354692#7"/>
    <trip id="veh62" type="veh_passenger" depart="158.90" departLane="best" from="190891727#3" to="-198690103"/>
    <trip id="veh63" type="veh_passenger" depart="161.47" departLane="best" from="772134673#18" to="974027184#1"/>
    <trip id="veh64" type="veh_passenger" depart="164.03" departLane="best" from="-28164803#0" to="28143360#5"/>
    <trip id="veh65" type="veh_passenger" depart="166.59" departLane="best" from="-27574822#0" to="-28402281#0"/>
    <trip id="veh66" type="veh_passenger" depart="169.16" departLane="best" departSpeed="max" from="559406199" to="-330542742"/>
    <trip id="veh67" type="veh_passenger" depart="171.72" departLane="best" from="117342833#7" to="726600972#7"/>
    <trip id="veh68" type="veh_passenger" depart="174.28" departLane="best" departSpeed="max" from="273924630#0" to="-974027184#0"/>
    <trip id="veh69" type="veh_passenger" depart="176.84" departLane="best" from="28559217" to="477378343#2"/>
    <trip id="veh70" type="veh_passenger" depart="179.41" departLane="best" from="854442455#2" to="190551093#3"/>
    <trip id="veh71" type="veh_passenger" depart="181.97" departLane="best" from="981951790#4" to="380081448#6"/>
    <trip id="veh72" type="veh_passenger" depart="184.53" departLane="best" departSpeed="max" from="27427949" to="28402282#11"/>
    <trip id="veh73" type="veh_passenger" depart="187.10" departLane="best" from="-30709224#2" to="1101850027#14"/>
    <trip id="veh74" type="veh_passenger" depart="189.66" departLane="best" departSpeed="max" from="199311773#0" to="30709224#1"/>
    <trip id="veh75" type="veh_passenger" depart="192.22" departLane="best" from="-27579758#1" to="359278534#1"/>
    <trip id="veh76" type="veh_passenger" depart="194.79" departLane="best" from="1101850027#6" to="854442453#2"/>
    <trip id="veh77" type="veh_passenger" depart="197.35" departLane="best" from="726600955#1" to="-27579758#1"/>
    <trip id="veh78" type="veh_passenger" depart="199.91" departLane="best" from="1101850045" to="453043773#8"/>
    <trip id="veh79" type="veh_passenger" depart="202.47" departLane="best" from="974027184#3" to="-39685249#4"/>
    <trip id="veh80" type="veh_passenger" depart="205.04" departLane="best" from="966123751#9" to="30418924#15"/>
    <trip id="veh81" type="veh_passenger" depart="207.60" departLane="best" from="-28020529#9" to="592012033#1"/>
    <trip id="veh82" type="veh_passenger" depart="210.16" departLane="best" from="600354682#8" to="-726600958#0"/>
    <trip id="veh83" type="veh_passenger" depart="212.73" departLane="best" from="-28412347#1" to="273924630#6"/>
    <trip id="veh84" type="veh_passenger" depart="215.29" departLane="best" departSpeed="max" from="273924630#0" to="27794277#1"/>
    <trip id="veh85" type="veh_passenger" depart="217.85" departLane="best" from="486230756#6" to="462356798#16"/>
    <trip id="veh86" type="veh_passenger" depart="220.41" departLane="best" from="981951786#10" to="-28412349#3"/>
    <trip id="veh87" type="veh_passenger" depart="222.98" departLane="best" departSpeed="max" from="273248233" to="198413524#0"/>
    <trip id="veh88" type="veh_passenger" depart="225.54" departLane="best" from="726600963#1" to="1132385607#0"/>
    <trip id="veh89" type="veh_passenger" depart="228.10" departLane="best" from="-726600957#2" to="27574952#2"/>
    <trip id="veh90" type="veh_passenger" depart="230.67" departLane="best" departSpeed="max" from="273924630#0" to="1225611660#1"/>
    <trip id="veh91" type="veh_passenger" depart="233.23" departLane="best" from="1132385608#4" to="895416017#0"/>
    <trip id="veh92" type="veh_passenger" depart="235.79" departLane="best" from="27574758#5" to="726600957#2"/>
    <trip id="veh93" type="veh_passenger" depart="238.36" departLane="best" from="288717027#2" to="-198413523#4"/>
    <trip id="veh94" type="veh_passenger" depart="240.92" departLane="best" from="984550390#0" to="600354716#6"/>
    <trip id="veh95" type="veh_passenger" depart="243.48" departLane="best" from="978085964#5" to="907638075#4"/>
    <trip id="veh96" type="veh_passenger" depart="246.04" departLane="best" from="726600940#10" to="486230763#8"/>
    <trip id="veh97" type="veh_passenger" depart="248.61" departLane="best" from="-28143361#4" to="-974027184#3"/>
    <trip id="veh98" type="veh_passenger" depart="251.17" departLane="best" departSpeed="max" from="273248233" to="37278112"/>
    <trip id="veh99" type="veh_passenger" depart="253.73" departLane="best" from="256838383#0" to="981951786#4"/>
    <trip id="veh100" type="veh_passenger" depart="256.30" departLane="best" from="117342833#7" to="586187434#8"/>
    <trip id="veh101" type="veh_passenger" depart="258.86" departLane="best" from="27580563#21" to="273924628#0"/>
    <trip id="veh102" type="veh_passenger" depart="261.42" departLane="best" from="977465926#4" to="981951790#4"/>
    <trip id="veh103" type="veh_passenger" depart="263.99" departLane="best" from="296062480#0" to="592012033#8"/>
    <trip id="veh104" type="veh_passenger" depart="266.55" departLane="best" from="476097653#8" to="160731913#12"/>
    <trip id="veh105" type="veh_passenger" depart="269.11" departLane="best" from="978085964#2" to="30644606#0"/>
    <trip id="veh106" type="veh_passenger" depart="271.67" departLane="best" from="28559441#2" to="547229145#2"/>
    <trip id="veh107" type="veh_passenger" depart="274.24" departLane="best" from="198690098" to="30644771#5"/>
    <trip id="veh108" type="veh_passenger" depart="276.80" departLane="best" from="28401663#11" to="726600940#5"/>
    <trip id="veh109" type="veh_passenger" depart="279.36" departLane="best" from="-481495301#0" to="978085963#7"/>
    <trip id="veh110" type="veh_passenger" depart="281.93" departLane="best" from="28143359#14" to="600354671"/>
    <trip id="veh111" type="veh_passenger" depart="284.49" departLane="best" from="31716810#1" to="462356798#24"/>
    <trip id="veh112" type="veh_passenger" depart="287.05" departLane="best" from="-1101850040#2" to="-30709224#1"/>
    <trip id="veh113" type="veh_passenger" depart="289.61" departLane="best" from="854442449#11" to="1132385601#2"/>
    <trip id="veh114" type="veh_passenger" depart="292.18" departLane="best" from="31716810#0" to="33884442#6"/>
    <trip id="veh115" type="veh_passenger" depart="294.74" departLane="best" from="273924628#6" to="30644771#4"/>
    <trip id="veh116" type="veh_passenger" depart="297.30" departLane="best" from="28412354#3" to="-966123751#8"/>
    <trip id="veh117" type="veh_passenger" depart="299.87" departLane="best" from="-895416014#1" to="592012033#22"/>
    <trip id="veh118" type="veh_passenger" depart="302.43" departLane="best" from="1131146493#0" to="267676656#5"/>
    <trip id="veh119" type="veh_passenger" depart="304.99" departLane="best" from="462356798#18" to="160731913#20"/>
    <trip id="veh120" type="veh_passenger" depart="307.56" departLane="best" from="198413499#0" to="548925358#1"/>
    <trip id="veh121" type="veh_passenger" depart="310.12" departLane="best" from="-27579758#6" to="27580563#21"/>
    <trip id="veh122" type="veh_passenger" depart="312.68" departLane="best" from="28559440#1" to="981951790#5"/>
    <trip id="veh123" type="veh_passenger" depart="315.24" departLane="best" from="-27794399" to="-974027184#2"/>
    <trip id="veh124" type="veh_passenger" depart="317.81" departLane="best" from="117342833#7" to="-966123751#2"/>
    <trip id="veh125" type="veh_passenger" depart="320.37" departLane="best" from="256464040#16" to="-486142436#2"/>
    <trip id="veh126" type="veh_passenger" depart="322.93" departLane="best" from="600354700#4" to="474629677#3"/>
    <trip id="veh127" type="veh_passenger" depart="325.50" departLane="best" from="330542687#5" to="981951787#1"/>
    <trip id="veh128" type="veh_passenger" depart="328.06" departLane="best" from="41202539#1" to="-1101850028"/>
    <trip id="veh129" type="veh_passenger" depart="330.62" departLane="best" from="600354684#0" to="160731913#19"/>
    <trip id="veh130" type="veh_passenger" depart="333.18" departLane="best" from="453043772" to="966474543#10"/>
    <trip id="veh131" type="veh_passenger" depart="335.75" departLane="best" from="-39685249#9" to="288856681"/>
    <trip id="veh132" type="veh_passenger" depart="338.31" departLane="best" from="-28559213#1" to="288051975"/>
    <trip id="veh133" type="veh_passenger" depart="340.87" departLane="best" from="-1225611659#1" to="31716810#8"/>
    <trip id="veh134" type="veh_passenger" depart="343.44" departLane="best" from="476097676#4" to="-895416014#1"/>
    <trip id="veh135" type="veh_passenger" depart="346.00" departLane="best" from="379748559#1" to="117342833#22"/>
    <trip id="veh136" type="veh_passenger" depart="348.56" departLane="best" from="726600939#2" to="-28402282#0"/>
    <trip id="veh137" type="veh_passenger" depart="351.13" departLane="best" departSpeed="max" from="273924630#0" to="1225611250#7"/>
    <trip id="veh138" type="veh_passenger" depart="353.69" departLane="best" from="-1101850021" to="559490473#1"/>
    <trip id="veh139" type="veh_passenger" depart="356.25" departLane="best" from="380081447#1" to="117342833#18"/>
    <trip id="veh140" type="veh_passenger" depart="358.81" departLane="best" from="542888386#0" to="28622939#1"/>
    <trip id="veh141" type="veh_passenger" depart="361.38" departLane="best" from="273924630#4" to="-1101850037#0"/>
    <trip id="veh142" type="veh_passenger" depart="363.94" departLane="best" from="-28020529#3" to="772134673#3"/>
    <trip id="veh143" type="veh_passenger" depart="366.50" departLane="best" from="87903005#1" to="28559215"/>
    <trip id="veh144" type="veh_passenger" depart="369.07" departLane="best" from="600354716#1" to="30644771#12"/>
    <trip id="veh145" type="veh_passenger" depart="371.63" departLane="best" from="-470237770#0" to="-32062679"/>
    <trip id="veh146" type="veh_passenger" depart="374.19" departLane="best" from="772134677#7" to="726600957#0"/>
    <trip id="veh147" type="veh_passenger" depart="376.76" departLane="best" from="854442451#5" to="-974027183#0"/>
    <trip id="veh148" type="veh_passenger" depart="379.32" departLane="best" from="1132385608#3" to="-28412410"/>
    <trip id="veh149" type="veh_passenger" depart="381.88" departLane="best" from="586187434#4" to="772134673#5"/>
    <trip id="veh150" type="veh_passenger" depart="384.44" departLane="best" from="273276535#1" to="33884442#9"/>
    <trip id="veh151" type="veh_passenger" depart="387.01" departLane="best" from="476097653#7" to="963225381#0"/>
    <trip id="veh152" type="veh_passenger" depart="389.57" departLane="best" from="726600963#5" to="981951782#0"/>
    <trip id="veh153" type="veh_passenger" depart="392.13" departLane="best" from="-1271523283" to="486230756#7"/>
    <trip id="veh154" type="veh_passenger" depart="394.70" departLane="best" from="198690094#6" to="964931603#1"/>
    <trip id="veh155" type="veh_passenger" depart="397.26" departLane="best" from="600354681#2" to="726600963#3"/>
    <trip id="veh156" type="veh_passenger" depart="399.82" departLane="best" from="600354683#11" to="117342833#8"/>
    <trip id="veh157" type="veh_passenger" depart="402.38" departLane="best" from="592012033#16" to="-28559214"/>
    <trip id="veh158" type="veh_passenger" depart="404.95" departLane="best" from="726600972#7" to="726600953#4"/>
    <trip id="veh159" type="veh_passenger" depart="407.51" departLane="best" from="-1101850024" to="600354683#4"/>
    <trip id="veh160" type="veh_passenger" depart="410.07" departLane="best" from="27794268#0" to="174762072#0"/>
    <trip id="veh161" type="veh_passenger" depart="412.64" departLane="best" from="476097674#0" to="1101850027#20"/>
    <trip id="veh162" type="veh_passenger" depart="415.20" departLane="best" from="-1225611659#1" to="843908917#3"/>
    <trip id="veh163" type="veh_passenger" depart="417.76" departLane="best" from="198413526#0" to="726600963#3"/>
    <trip id="veh164" type="veh_passenger" depart="420.33" departLane="best" from="978085964#18" to="1225611660#4"/>
    <trip id="veh165" type="veh_passenger" depart="422.89" departLane="best" from="380081448#16" to="268192646#6"/>
    <trip id="veh166" type="veh_passenger" depart="425.45" departLane="best" from="981951785#5" to="28412364#2"/>
    <trip id="veh167" type="veh_passenger" depart="428.01" departLane="best" from="966474543#11" to="-288856679"/>
    <trip id="veh168" type="veh_passenger" depart="430.58" departLane="best" from="27580563#16" to="-550582601#1"/>
    <trip id="veh169" type="veh_passenger" depart="433.14" departLane="best" from="978085964#10" to="117342833#4"/>
    <trip id="veh170" type="veh_passenger" depart="435.70" departLane="best" from="-28559214" to="273924632#12"/>
    <trip id="veh171" type="veh_passenger" depart="438.27" departLane="best" from="318977731#1" to="28401663#12"/>
    <trip id="veh172" type="veh_passenger" depart="440.83" departLane="best" from="267676656#0" to="30547804#4"/>
    <trip id="veh173" type="veh_passenger" depart="443.39" departLane="best" from="379748559#5" to="474629677#7"/>
    <trip id="veh175" type="veh_passenger" depart="448.52" departLane="best" from="28559216#2" to="592012033#5"/>
    <trip id="veh176" type="veh_passenger" depart="451.08" departLane="best" from="547229145#2" to="461646077#2"/>
    <trip id="veh177" type="veh_passenger" depart="453.64" departLane="best" from="256457175#0" to="27574822#5"/>
    <trip id="veh178" type="veh_passenger" depart="456.21" departLane="best" from="453043773#2" to="198413506#0"/>
    <trip id="veh179" type="veh_passenger" depart="458.77" departLane="best" from="476097676#6" to="160731913#20"/>
    <trip id="veh181" type="veh_passenger" depart="463.90" departLane="best" departSpeed="max" from="273248233" to="160731913#0"/>
    <trip id="veh182" type="veh_passenger" depart="466.46" departLane="best" from="-32062678" to="273924626#1"/>
    <trip id="veh183" type="veh_passenger" depart="469.02" departLane="best" from="854442455#2" to="330542687#3"/>
    <trip id="veh184" type="veh_passenger" depart="471.58" departLane="best" from="190551093#3" to="28559440#1"/>
    <trip id="veh185" type="veh_passenger" depart="474.15" departLane="best" from="-1021559402#0" to="1309504666#0"/>
    <trip id="veh186" type="veh_passenger" depart="476.71" departLane="best" from="273924630#6" to="30644606#2"/>
    <trip id="veh187" type="veh_passenger" depart="479.27" departLane="best" from="41202539#4" to="27794268#1"/>
    <trip id="veh188" type="veh_passenger" depart="481.84" departLane="best" from="27574758#2" to="-974027184#3"/>
    <trip id="veh189" type="veh_passenger" depart="484.40" departLane="best" from="28111856#1" to="854442451#1"/>
    <trip id="veh190" type="veh_passenger" depart="486.96" departLane="best" from="592012033#8" to="-547229146#1"/>
    <trip id="veh191" type="veh_passenger" depart="489.53" departLane="best" from="-28143798#0" to="28401664#1"/>
    <trip id="veh192" type="veh_passenger" depart="492.09" departLane="best" from="37902558#1" to="198413522#0"/>
    <trip id="veh193" type="veh_passenger" depart="494.65" departLane="best" from="600354684#4" to="548813164"/>
    <trip id="veh194" type="veh_passenger" depart="497.21" departLane="best" from="462356798#24" to="1101850027#14"/>
    <trip id="veh195" type="veh_passenger" depart="499.78" departLane="best" from="-854442449#8" to="1270337496"/>
    <trip id="veh196" type="veh_passenger" depart="502.34" departLane="best" from="1132385601#2" to="28020529#8"/>
    <trip id="veh197" type="veh_passenger" depart="504.90" departLane="best" from="273924625#7" to="34634622#3"/>
    <trip id="veh198" type="veh_passenger" depart="507.47" departLane="best" from="-843908924#1" to="46835724#0"/>
    <trip id="veh199" type="veh_passenger" depart="510.03" departLane="best" from="28368656#1" to="1132385599#7"/>
    <trip id="veh200" type="veh_passenger" depart="512.59" departLane="best" from="41202540#1" to="-1101850023#1"/>
    <trip id="veh201" type="veh_passenger" depart="515.16" departLane="best" from="549739482#5" to="-557248345#4"/>
    <trip id="veh202" type="veh_passenger" depart="517.72" departLane="best" from="895416009#0" to="273924625#4"/>
    <trip id="veh203" type="veh_passenger" depart="520.28" departLane="best" from="550582598#4" to="978085963#1"/>
    <trip id="veh204" type="veh_passenger" depart="522.84" departLane="best" from="28412350#1" to="-198413523#2"/>
    <trip id="veh205" type="veh_passenger" depart="525.41" departLane="best" from="1132385608#2" to="726600940#1"/>
    <trip id="veh206" type="veh_passenger" depart="527.97" departLane="best" from="27580563#3" to="476097676#8"/>
    <trip id="veh207" type="veh_passenger" depart="530.53" departLane="best" from="453043774#1" to="981951788#1"/>
    <trip id="veh208" type="veh_passenger" depart="533.10" departLane="best" from="-31716810#5" to="976310617#1"/>
    <trip id="veh209" type="veh_passenger" depart="535.66" departLane="best" from="854442449#12" to="32062676#0"/>
    <trip id="veh210" type="veh_passenger" depart="538.22" departLane="best" from="476097676#5" to="28368656#6"/>
    <trip id="veh211" type="veh_passenger" depart="540.78" departLane="best" from="600354692#5" to="28559440#1"/>
    <trip id="veh212" type="veh_passenger" depart="543.35" departLane="best" from="28143358#4" to="117340957"/>
    <trip id="veh213" type="veh_passenger" depart="545.91" departLane="best" from="1132385607#0" to="37278115"/>
    <trip id="veh214" type="veh_passenger" depart="548.47" departLane="best" departSpeed="max" from="559406199" to="28402285#2"/>
    <trip id="veh215" type="veh_passenger" depart="551.04" departLane="best" from="370673861#1" to="1225611250#11"/>
    <trip id="veh216" type="veh_passenger" depart="553.60" departLane="best" from="-28020529#9" to="1272493382#4"/>
    <trip id="veh217" type="veh_passenger" depart="556.16" departLane="best" from="1225611659#0" to="190891727#1"/>
    <trip id="veh218" type="veh_passenger" depart="558.73" departLane="best" from="28559441#0" to="-41202539#5"/>
    <trip id="veh219" type="veh_passenger" depart="561.29" departLane="best" from="-1101850032" to="46835723#1"/>
    <trip id="veh220" type="veh_passenger" depart="563.85" departLane="best" from="476097653#4" to="-27015120#0"/>
    <trip id="veh221" type="veh_passenger" depart="566.41" departLane="best" from="273276548#4" to="28559212#3"/>
    <trip id="veh223" type="veh_passenger" depart="571.54" departLane="best" departSpeed="max" from="273924630#0" to="854442453#1"/>
    <trip id="veh224" type="veh_passenger" depart="574.10" departLane="best" from="31714632#15" to="46835724#0"/>
    <trip id="veh225" type="veh_passenger" depart="576.67" departLane="best" from="726600953#2" to="-550582601#2"/>
    <trip id="veh226" type="veh_passenger" depart="579.23" departLane="best" from="256843852#3" to="-1101850023#1"/>
    <trip id="veh227" type="veh_passenger" depart="581.79" departLane="best" from="202548532#0" to="549739482#0"/>
    <trip id="veh228" type="veh_passenger" depart="584.36" departLane="best" from="726600940#6" to="977465924#1"/>
    <trip id="veh229" type="veh_passenger" depart="586.92" departLane="best" from="273924628#6" to="547229145#1"/>
    <trip id="veh230" type="veh_passenger" depart="589.48" departLane="best" from="966474543#4" to="174762073#4"/>
    <trip id="veh231" type="veh_passenger" depart="592.04" departLane="best" departSpeed="max" from="273248233" to="-486230763#13"/>
    <trip id="veh232" type="veh_passenger" depart="594.61" departLane="best" from="27794399" to="-32062679"/>
    <trip id="veh233" type="veh_passenger" depart="597.17" departLane="best" from="34634622#0" to="174762071#0"/>
    <trip id="veh234" type="veh_passenger" depart="599.73" departLane="best" departSpeed="max" from="268366803#0" to="296062480#0"/>
    <trip id="veh235" type="veh_passenger" depart="602.30" departLane="best" from="-174762071#0" to="380081447#0"/>
    <trip id="veh237" type="veh_passenger" depart="607.42" departLane="best" from="-198413523#2" to="256464040#2"/>
    <trip id="veh238" type="veh_passenger" depart="609.98" departLane="best" from="974027183#3" to="198413490"/>
    <trip id="veh239" type="veh_passenger" depart="612.55" departLane="best" from="-557248345#0" to="256464040#2"/>
    <trip id="veh240" type="veh_passenger" depart="615.11" departLane="best" from="549739482#6" to="600354693#0"/>
    <trip id="veh241" type="veh_passenger" depart="617.67" departLane="best" from="1132385903#1" to="-28143359#8"/>
    <trip id="veh242" type="veh_passenger" depart="620.24" departLane="best" from="-1188589485" to="28412367#4"/>