<?xml version="1.0" encoding="UTF-8"?>

<!-- generated on 2025-03-14 16:49:11.824129 by randomTrips.py v1_21_0+1021-4606c0d7274
<configuration>
    <net-file value="osm.net.xml.gz"/>
    <route-file value="trip_files/trips_Saturday_21_00_00_00.xml"/>
    <fringe-factor value="1.1"/>
    <begin value="75600.0"/>
    <end value="0.0"/>
    <insertion-rate value="20.0"/>
</configuration>
-->

<routes xmlns:xsi="http://www.w3.org/2001/XMLSchema-instance" xsi:noNamespaceSchemaLocation="http://sumo.dlr.de/xsd/routes_file.xsd">
</routes>
