<?xml version="1.0" encoding="UTF-8"?>

<!-- generated on 2025-02-12 16:55:59.177420 by $Id: ptlines2flows.py v1_3_1+0313-ccb31df3eb jakob.erdmann@dlr.de 2019-09-02 13:26:32 +0200 $ v1_21_0+1021-4606c0d7274
<configuration>
    <net-file value="/Users/dhrishajgarg/sumo/tools/2025-02-12-16-55-41/osm.net.xml.gz"/>
    <ptlines-file value="/Users/dhrishajgarg/sumo/tools/2025-02-12-16-55-41/osm_ptlines.xml"/>
    <ptstops-file value="/Users/dhrishajgarg/sumo/tools/2025-02-12-16-55-41/osm_stops.add.xml"/>
    <output-file value="/Users/dhrishajgarg/sumo/tools/2025-02-12-16-55-41/osm_pt.rou.xml"/>
    <stopinfos-file value="/Users/dhrishajgarg/sumo/tools/2025-02-12-16-55-41/stopinfos.xml"/>
    <routes-file value="/Users/dhrishajgarg/sumo/tools/2025-02-12-16-55-41/vehroutes.xml"/>
    <trips-file value="/Users/dhrishajgarg/sumo/tools/2025-02-12-16-55-41/trips.trips.xml"/>
    <min-stops value="0"/>
    <extend-to-fringe value="True"/>
    <random-begin value="True"/>
    <seed value="42"/>
    <ignore-errors value="True"/>
    <vtype-prefix value="pt_"/>
    <verbose value="True"/>
</configuration>
-->

<routes xmlns:xsi="http://www.w3.org/2001/XMLSchema-instance" xsi:noNamespaceSchemaLocation="http://sumo.dlr.de/xsd/routes_file.xsd">
    <vType id="pt_bus" vClass="bus" speedFactor="0.95"/>
    <vType id="pt_tram" vClass="tram" speedFactor="1.0"/>
    <vType id="pt_train" vClass="rail"/>
    <vType id="pt_subway" vClass="subway"/>
    <vType id="pt_light_rail" vClass="rail_urban"/>
    <vType id="pt_monorail" vClass="rail_urban"/>
    <vType id="pt_trolleybus" vClass="bus" speedFactor="0.95"/>
    <vType id="pt_minibus" vClass="bus" speedFactor="0.95"/>
    <vType id="pt_share_taxi" vClass="taxi" speedFactor="0.95"/>
    <vType id="pt_aerialway" vClass="cable_car" length="2.5" width="2" personCapacity="4"/>
    <vType id="pt_ferry" vClass="ship"/>
    <trip id="0_train_OT:0" type="pt_train" depart="15.0" departLane="best" from="30661903" to="1178632946#2">
        <stop busStop="339086117" duration="30"/>  <!-- 東山 -->
        <stop busStop="339086095" duration="30"/>  <!-- 三条京阪 -->
        <stop busStop="339086207" duration="30"/>  <!-- 京都市役所前 -->
        <stop busStop="5219651004" duration="30"/>  <!-- 烏丸御池 -->
    </trip>
    <trip id="1_train_OT:1" type="pt_train" depart="15.0" departLane="best" from="1178632943" to="1178632938#2">
        <stop busStop="10949479984" duration="30"/>  <!-- 烏丸御池 -->
        <stop busStop="10949479955" duration="30"/>  <!-- 京都市役所前 -->
        <stop busStop="10949479931" duration="30"/>  <!-- 三条京阪 -->
        <stop busStop="10949479923" duration="30"/>  <!-- 東山 -->
    </trip>
    <trip id="2_train_K+B:0" type="pt_train" depart="17.0" departLane="best" from="833545105" to="833544793">
        <stop busStop="7781214903" duration="30"/>  <!-- 丸太町 -->
        <stop busStop="7781211828" duration="30"/>  <!-- 烏丸御池 -->
    </trip>
    <trip id="3_train_B+K:0" type="pt_train" depart="52.0" departLane="best" from="30662077" to="30662093#1">
        <stop busStop="339087268" duration="30"/>  <!-- 烏丸御池 -->
        <stop busStop="339087047" duration="30"/>  <!-- 丸太町 -->
    </trip>
    <trip id="4_train_HK:0" type="pt_train" depart="119.0" departLane="best" from="30415674" to="741839575">
        <stop busStop="335667743" duration="30"/>  <!-- 烏丸 -->
        <stop busStop="7795996210" duration="30"/>  <!-- 京都河原町 -->
    </trip>
    <trip id="5_train_HK:1" type="pt_train" depart="131.0" departLane="best" from="-881920709" to="741839581#1">
        <stop busStop="-7795996210" duration="30"/>  <!-- 京都河原町 -->
        <stop busStop="6944607673" duration="30"/>  <!-- 烏丸 -->
    </trip>
    <trip id="6_train_KH:0" type="pt_train" depart="132.0" departLane="best" from="30662340" to="30430485">
        <stop busStop="335826528" duration="30"/>  <!-- 三条 -->
    </trip>
    <trip id="7_train_京阪本線・鴨東線:0" type="pt_train" depart="133.0" departLane="best" from="734990385" to="734990379">
        <stop busStop="6883622246" duration="30"/>  <!-- 三条 -->
    </trip>
    <trip id="8_train_KH:1" type="pt_train" depart="165.0" departLane="best" from="30662340" to="30430485">
        <stop busStop="335826528" duration="30"/>  <!-- 三条 -->
    </trip>
    <trip id="9_train_KH:2" type="pt_train" depart="253.0" departLane="best" from="734990385" to="734990379">
        <stop busStop="6883622246" duration="30"/>  <!-- 三条 -->
    </trip>
    <trip id="13_bus_100:0" type="pt_bus" depart="383.0" departLane="best" from="58413931#0" to="273276548#8">
        <stop busStop="2785051569" duration="30"/>  <!-- 祇園 -->
    </trip>
    <trip id="14_subway_K:0" type="pt_subway" depart="389.0" departLane="best" from="833545105" to="833544793">
        <stop busStop="7781214903" duration="30"/>  <!-- 丸太町 -->
        <stop busStop="7781211828" duration="30"/>  <!-- 烏丸御池 -->
    </trip>
    <trip id="15_subway_T:0" type="pt_subway" depart="406.0" departLane="best" from="30661903" to="1178632946#2">
        <stop busStop="339086117" duration="30"/>  <!-- 東山 -->
        <stop busStop="339086095" duration="30"/>  <!-- 三条京阪 -->
        <stop busStop="339086207" duration="30"/>  <!-- 京都市役所前 -->
        <stop busStop="5219651004" duration="30"/>  <!-- 烏丸御池 -->
    </trip>
    <trip id="16_subway_K:1" type="pt_subway" depart="441.0" departLane="best" from="30662077" to="30662093#1">
        <stop busStop="339087268" duration="30"/>  <!-- 烏丸御池 -->
        <stop busStop="339087047" duration="30"/>  <!-- 丸太町 -->
    </trip>
    <trip id="17_subway_T:1" type="pt_subway" depart="535.0" departLane="best" from="1178632943" to="1178632938#2">
        <stop busStop="10949479984" duration="30"/>  <!-- 烏丸御池 -->
        <stop busStop="10949479955" duration="30"/>  <!-- 京都市役所前 -->
        <stop busStop="10949479931" duration="30"/>  <!-- 三条京阪 -->
        <stop busStop="10949479923" duration="30"/>  <!-- 東山 -->
    </trip>
</routes>
