<?xml version="1.0" encoding="UTF-8"?>

<!-- generated on 2025-02-12 17:19:07.729916 by osmWebWizard.py v1_21_0+1021-4606c0d7274
<configuration>
    <net-file value="/Users/dhrishajgarg/sumo/tools/2025-02-12-17-18-50/osm.net.xml.gz"/>
    <output-trip-file value="/Users/dhrishajgarg/sumo/tools/2025-02-12-17-18-50/osm.passenger.trips.xml"/>
    <route-file value="/Users/dhrishajgarg/sumo/tools/2025-02-12-17-18-50/osm.passenger.rou.xml"/>
    <prefix value="veh"/>
    <trip-attributes value="departLane=&quot;best&quot;"/>
    <fringe-start-attributes value="departSpeed=&quot;max&quot;"/>
    <vehicle-class value="passenger"/>
    <lanes value="True"/>
    <fringe-factor value="5"/>
    <allow-fringe.min-length value="1000.0"/>
    <via-edge-types value="highway.motorway,highway.motorway_link,highway.trunk_link,highway.primary_link,highway.secondary_link,highway.tertiary_link"/>
    <min-distance value="300.0"/>
    <min-distance.fringe value="10.0"/>
    <remove-loops value="True"/>
    <validate value="True"/>
    <insertion-density value="12.0"/>
</configuration>
-->

<!-- generated on 2025-02-12 17:19:07 by Eclipse SUMO duarouter Version v1_21_0+1021-4606c0d7274
<duarouterConfiguration xmlns:xsi="http://www.w3.org/2001/XMLSchema-instance" xsi:noNamespaceSchemaLocation="http://sumo.dlr.de/xsd/duarouterConfiguration.xsd">

    <input>
        <net-file value="/Users/dhrishajgarg/sumo/tools/2025-02-12-17-18-50/osm.net.xml.gz"/>
        <route-files value="/Users/dhrishajgarg/sumo/tools/2025-02-12-17-18-50/osm.passenger.trips.xml"/>
    </input>

    <output>
        <output-file value="/Users/dhrishajgarg/sumo/tools/2025-02-12-17-18-50/osm.passenger.trips.xml.tmp"/>
        <alternatives-output value="NUL"/>
        <write-trips value="true"/>
    </output>

    <processing>
        <remove-loops value="true"/>
    </processing>

    <time>
        <begin value="0.0"/>
        <end value="3600.0"/>
    </time>

    <report>
        <no-warnings value="true"/>
        <ignore-errors value="true"/>
        <no-step-log value="true"/>
    </report>

</duarouterConfiguration>
-->

<routes xmlns:xsi="http://www.w3.org/2001/XMLSchema-instance" xsi:noNamespaceSchemaLocation="http://sumo.dlr.de/xsd/routes_file.xsd">
    <vType id="veh_passenger" vClass="passenger"/>
    <trip id="veh0" type="veh_passenger" depart="0.00" departLane="best" from="143652155#4" to="10147985#1"/>
    <trip id="veh1" type="veh_passenger" depart="2.83" departLane="best" from="785681839#3" to="-416766505#0"/>
    <trip id="veh2" type="veh_passenger" depart="5.67" departLane="best" from="-290431864#3" to="146293944#2"/>
    <trip id="veh3" type="veh_passenger" depart="8.50" departLane="best" from="1025539161#3" to="10151105#2"/>
    <trip id="veh4" type="veh_passenger" depart="11.33" departLane="best" from="-351716716#0" to="1163610279#0"/>
    <trip id="veh5" type="veh_passenger" depart="14.17" departLane="best" departSpeed="max" from="-10141812#1" to="-152356337#3"/>
    <trip id="veh6" type="veh_passenger" depart="17.00" departLane="best" from="144482817#1" to="1190620309#0"/>
    <trip id="veh7" type="veh_passenger" depart="19.83" departLane="best" from="352318318#1" to="-1303307214#0"/>
    <trip id="veh8" type="veh_passenger" depart="22.67" departLane="best" from="546230175#4" to="10127724#5"/>
    <trip id="veh9" type="veh_passenger" depart="25.50" departLane="best" from="487737389#3" to="172108216#1"/>
    <trip id="veh10" type="veh_passenger" depart="28.33" departLane="best" from="1024402659#0" to="-1316178675"/>
    <trip id="veh11" type="veh_passenger" depart="31.17" departLane="best" from="829867666#0" to="1024402657#0"/>
    <trip id="veh12" type="veh_passenger" depart="34.00" departLane="best" from="-105826037#1" to="-1086822703#0"/>
    <trip id="veh13" type="veh_passenger" depart="36.83" departLane="best" from="487737389#4" to="290431847#0"/>
    <trip id="veh14" type="veh_passenger" depart="39.67" departLane="best" from="1190597294#0" to="829867672#1"/>
    <trip id="veh15" type="veh_passenger" depart="42.50" departLane="best" from="1025528916#2" to="1190758972#0"/>
    <trip id="veh16" type="veh_passenger" depart="45.33" departLane="best" from="620676001#1" to="1328977400"/>
    <trip id="veh17" type="veh_passenger" depart="48.17" departLane="best" from="669250712#4" to="-1294636485#0"/>
    <trip id="veh18" type="veh_passenger" depart="51.00" departLane="best" from="-172946090#4" to="-1025528919#8"/>
    <trip id="veh19" type="veh_passenger" depart="53.83" departLane="best" from="-416768135#1" to="-995754687#1"/>
    <trip id="veh20" type="veh_passenger" depart="56.67" departLane="best" from="-1025539161#3" to="530086000#3"/>
    <trip id="veh21" type="veh_passenger" depart="59.50" departLane="best" departSpeed="max" from="143652148" to="1024519081#3"/>
    <trip id="veh22" type="veh_passenger" depart="62.33" departLane="best" from="1024978628#0" to="-290431864#3"/>
    <trip id="veh23" type="veh_passenger" depart="65.17" departLane="best" from="68892946#2" to="829341689#3"/>
    <trip id="veh24" type="veh_passenger" depart="68.00" departLane="best" from="144482814#2" to="1323740989#1"/>
    <trip id="veh25" type="veh_passenger" depart="70.83" departLane="best" from="-1323740969#2" to="1025528916#1"/>
    <trip id="veh26" type="veh_passenger" depart="73.67" departLane="best" from="833863156#8" to="143652155#5"/>
    <trip id="veh27" type="veh_passenger" depart="76.50" departLane="best" from="1190803150#0" to="146295531#0"/>
    <trip id="veh28" type="veh_passenger" depart="79.33" departLane="best" from="621213982#1" to="416756696#4"/>
    <trip id="veh29" type="veh_passenger" depart="82.17" departLane="best" from="-416768149#0" to="-1024402662#2"/>
    <trip id="veh30" type="veh_passenger" depart="85.00" departLane="best" from="10141763#4" to="705605478#0"/>
    <trip id="veh31" type="veh_passenger" depart="87.83" departLane="best" from="-172946090#5" to="287312895#1"/>
    <trip id="veh33" type="veh_passenger" depart="93.50" departLane="best" from="144482817#4" to="1025530501#1"/>
    <trip id="veh34" type="veh_passenger" depart="96.33" departLane="best" from="724639226#2" to="-1294634272"/>
    <trip id="veh35" type="veh_passenger" depart="99.17" departLane="best" from="-684690206#3" to="-659479035#3"/>
    <trip id="veh36" type="veh_passenger" depart="102.00" departLane="best" from="1213065905#1" to="-684690206#4"/>
    <trip id="veh37" type="veh_passenger" depart="104.83" departLane="best" from="-1301870717#0" to="68892947#3"/>
    <trip id="veh38" type="veh_passenger" depart="107.67" departLane="best" from="-1025530502#8" to="-416766480"/>
    <trip id="veh39" type="veh_passenger" depart="110.50" departLane="best" from="995754688#1" to="1173603179#0"/>
    <trip id="veh40" type="veh_passenger" depart="113.33" departLane="best" from="-105744735#6" to="-1025530497#1"/>
    <trip id="veh41" type="veh_passenger" depart="116.17" departLane="best" departSpeed="max" from="-1089597437#1" to="1347275589#0"/>
    <trip id="veh42" type="veh_passenger" depart="119.00" departLane="best" from="452731135#0" to="1025539161#1"/>
    <trip id="veh43" type="veh_passenger" depart="121.83" departLane="best" from="1025530503#3" to="1025528916#4"/>
    <trip id="veh44" type="veh_passenger" depart="124.67" departLane="best" from="995754687#0" to="1190548723#0"/>
    <trip id="veh45" type="veh_passenger" depart="127.50" departLane="best" from="829867671#1" to="669250712#3"/>
    <trip id="veh46" type="veh_passenger" depart="130.33" departLane="best" from="10134441#1" to="198549614#2"/>
    <trip id="veh47" type="veh_passenger" depart="133.17" departLane="best" from="146293957#2" to="1190577562#0"/>
    <trip id="veh48" type="veh_passenger" depart="136.00" departLane="best" from="68892946#2" to="620676019#1"/>
    <trip id="veh49" type="veh_passenger" depart="138.83" departLane="best" from="-1090197062#2" to="1025920373#0"/>
    <trip id="veh50" type="veh_passenger" depart="141.67" departLane="best" from="1060099609#1" to="829867664#1"/>
    <trip id="veh51" type="veh_passenger" depart="144.50" departLane="best" from="684041841#0" to="-684690206#5"/>
    <trip id="veh52" type="veh_passenger" depart="147.33" departLane="best" from="1163610279#0" to="-143640445#0"/>
    <trip id="veh53" type="veh_passenger" depart="150.17" departLane="best" from="-704074200#3" to="675221052"/>
    <trip id="veh54" type="veh_passenger" depart="153.00" departLane="best" from="10127724#1" to="143652155#3"/>
    <trip id="veh55" type="veh_passenger" depart="155.83" departLane="best" from="-1323740990" to="1313323851#0"/>
    <trip id="veh56" type="veh_passenger" depart="158.67" departLane="best" from="351018000#5" to="1190597294#0"/>
    <trip id="veh57" type="veh_passenger" depart="161.50" departLane="best" from="416756696#4" to="1190548724#0"/>
    <trip id="veh58" type="veh_passenger" depart="164.33" departLane="best" from="10127482#2" to="10147985#0"/>
    <trip id="veh59" type="veh_passenger" depart="167.17" departLane="best" from="-10141763#3" to="828456094"/>
    <trip id="veh60" type="veh_passenger" depart="170.00" departLane="best" from="684041841#3" to="620676001#4"/>
    <trip id="veh61" type="veh_passenger" depart="172.83" departLane="best" from="-10138254#0" to="-1025530503#2"/>
    <trip id="veh62" type="veh_passenger" depart="175.67" departLane="best" from="684041841#2" to="829867657#1"/>
    <trip id="veh63" type="veh_passenger" depart="178.50" departLane="best" from="-1025920372#1" to="1102596888"/>
    <trip id="veh64" type="veh_passenger" depart="181.33" departLane="best" from="361951546#1" to="-1274310928#0"/>
    <trip id="veh65" type="veh_passenger" depart="184.17" departLane="best" from="1098766724#1" to="1190621715#0"/>
    <trip id="veh66" type="veh_passenger" depart="187.00" departLane="best" from="-684690206#4" to="675221069#1"/>
    <trip id="veh67" type="veh_passenger" depart="189.83" departLane="best" from="1025867155#3" to="-337390671#2"/>
    <trip id="veh68" type="veh_passenger" depart="192.67" departLane="best" from="1190597565#0" to="290431847#0"/>
    <trip id="veh69" type="veh_passenger" depart="195.50" departLane="best" from="993075596#2" to="144482817#1"/>
    <trip id="veh70" type="veh_passenger" depart="198.33" departLane="best" from="105744735#2" to="1190531837#0"/>
    <trip id="veh71" type="veh_passenger" depart="201.17" departLane="best" from="-1190541486#1" to="-416768135#1"/>
    <trip id="veh72" type="veh_passenger" depart="204.00" departLane="best" from="1024402658#0" to="1303307213#0"/>
    <trip id="veh73" type="veh_passenger" depart="206.83" departLane="best" from="-452731135#0" to="-416766496#0"/>
    <trip id="veh74" type="veh_passenger" depart="209.67" departLane="best" from="-1025533354#3" to="1352438966#1"/>
    <trip id="veh75" type="veh_passenger" depart="212.50" departLane="best" from="-416768149#0" to="69054717#1"/>
    <trip id="veh76" type="veh_passenger" depart="215.33" departLane="best" from="659479035#5" to="1025534258#0"/>
    <trip id="veh77" type="veh_passenger" depart="218.17" departLane="best" from="589711307#3" to="145041514#5"/>
    <trip id="veh78" type="veh_passenger" depart="221.00" departLane="best" from="-290431864#0" to="-1294636485#1"/>
    <trip id="veh79" type="veh_passenger" depart="223.83" departLane="best" from="-829341689#0" to="1226971376#1"/>
    <trip id="veh80" type="veh_passenger" depart="226.67" departLane="best" from="1090197064#1" to="-416768128"/>
    <trip id="veh81" type="veh_passenger" depart="229.50" departLane="best" from="527544950" to="-145221068#6"/>
    <trip id="veh82" type="veh_passenger" depart="232.33" departLane="best" from="1060102921#3" to="1025905875#2"/>
    <trip id="veh83" type="veh_passenger" depart="235.17" departLane="best" from="1025867157#0" to="1086822704#0"/>
    <trip id="veh84" type="veh_passenger" depart="238.00" departLane="best" from="290431842#2" to="145294122#2"/>
    <trip id="veh85" type="veh_passenger" depart="240.83" departLane="best" from="832628246#1" to="1086822704#0"/>
    <trip id="veh86" type="veh_passenger" depart="243.67" departLane="best" from="1025530503#6" to="1024402658#0"/>
    <trip id="veh87" type="veh_passenger" depart="246.50" departLane="best" from="669250712#4" to="-659479035#7"/>
    <trip id="veh88" type="veh_passenger" depart="249.33" departLane="best" from="-145040503#4" to="105826041#3"/>
    <trip id="veh89" type="veh_passenger" depart="252.17" departLane="best" from="-1025539161#3" to="-829341687#3"/>
    <trip id="veh90" type="veh_passenger" depart="255.00" departLane="best" from="-659479035#3" to="785681839#2"/>
    <trip id="veh91" type="veh_passenger" depart="257.83" departLane="best" from="105826032#2" to="675221033#0"/>
    <trip id="veh92" type="veh_passenger" depart="260.67" departLane="best" from="1190765123#2" to="1025530501#1"/>
    <trip id="veh93" type="veh_passenger" depart="263.50" departLane="best" from="995754691#1" to="620676022#1"/>
    <trip id="veh94" type="veh_passenger" depart="266.33" departLane="best" from="829867670#0" to="-792424581"/>
    <trip id="veh95" type="veh_passenger" depart="269.17" departLane="best" from="1025528916#2" to="833863156#1"/>
    <trip id="veh96" type="veh_passenger" depart="272.00" departLane="best" from="-684690206#4" to="416768140"/>
    <trip id="veh97" type="veh_passenger" depart="274.83" departLane="best" from="1060102921#1" to="1025539161#2"/>
    <trip id="veh98" type="veh_passenger" depart="277.67" departLane="best" from="829867666#0" to="995054725#1"/>
    <trip id="veh99" type="veh_passenger" depart="280.50" departLane="best" from="1190803149#1" to="198549614#1"/>
    <trip id="veh100" type="veh_passenger" depart="283.33" departLane="best" from="-1307522027" to="10127724#4"/>
    <trip id="veh101" type="veh_passenger" depart="286.17" departLane="best" from="829867670#0" to="1300633424#1"/>
    <trip id="veh102" type="veh_passenger" depart="289.00" departLane="best" from="1190620309#1" to="346397914#4"/>
    <trip id="veh103" type="veh_passenger" depart="291.84" departLane="best" from="-1025530501#3" to="1301870717#0"/>
    <trip id="veh104" type="veh_passenger" depart="294.67" departLane="best" from="1163610280" to="655465149#1"/>
    <trip id="veh105" type="veh_passenger" depart="297.50" departLane="best" departSpeed="max" from="-1313092860#2" to="829867667#2"/>
    <trip id="veh106" type="veh_passenger" depart="300.34" departLane="best" from="-1025539161#3" to="-145041514#5"/>
    <trip id="veh107" type="veh_passenger" depart="303.17" departLane="best" from="1307351284" to="-145294132#4"/>
    <trip id="veh108" type="veh_passenger" depart="306.00" departLane="best" from="-530086000#2" to="-1190548727#1"/>
    <trip id="veh109" type="veh_passenger" depart="308.84" departLane="best" from="684465109#6" to="-659479035#3"/>
    <trip id="veh110" type="veh_passenger" depart="311.67" departLane="best" from="1307351284" to="1328977401"/>
    <trip id="veh111" type="veh_passenger" depart="314.50" departLane="best" from="1025534258#0" to="-145221068#0"/>
    <trip id="veh112" type="veh_passenger" depart="317.34" departLane="best" from="-1190541488#2" to="829341687#3"/>
    <trip id="veh113" type="veh_passenger" depart="320.17" departLane="best" from="152356337#3" to="198549606#3"/>
    <trip id="veh114" type="veh_passenger" depart="323.00" departLane="best" from="-589711307#4" to="-1025530501#1"/>
    <trip id="veh115" type="veh_passenger" depart="325.84" departLane="best" from="145221068#3" to="10128206#3"/>
    <trip id="veh116" type="veh_passenger" depart="328.67" departLane="best" from="10141763#6" to="346397959#2"/>
    <trip id="veh117" type="veh_passenger" depart="331.50" departLane="best" from="-1025534256#2" to="-1060102922#1"/>
    <trip id="veh118" type="veh_passenger" depart="334.34" departLane="best" from="-1025534256#3" to="-352318318#0"/>
    <trip id="veh119" type="veh_passenger" depart="337.17" departLane="best" from="-684690206#4" to="829341687#1"/>
    <trip id="veh120" type="veh_passenger" depart="340.00" departLane="best" from="684465036#0" to="-684041841#3"/>
    <trip id="veh121" type="veh_passenger" depart="342.84" departLane="best" from="1024978627#1" to="-1323740969#2"/>
    <trip id="veh122" type="veh_passenger" depart="345.67" departLane="best" from="620676001#6" to="172946090#1"/>
    <trip id="veh123" type="veh_passenger" depart="348.50" departLane="best" from="1324154498#3" to="833863156#4"/>
    <trip id="veh124" type="veh_passenger" depart="351.34" departLane="best" from="144482817#3" to="-10128206#2"/>
    <trip id="veh125" type="veh_passenger" depart="354.17" departLane="best" from="552467179#1" to="10128206#2"/>
    <trip id="veh126" type="veh_passenger" depart="357.00" departLane="best" from="144668577#2" to="829341691#4"/>
    <trip id="veh127" type="veh_passenger" depart="359.84" departLane="best" from="-1294634272" to="1190541487"/>
    <trip id="veh128" type="veh_passenger" depart="362.67" departLane="best" from="-1086822706#0" to="1190765123#0"/>
    <trip id="veh129" type="veh_passenger" depart="365.50" departLane="best" from="198549606#7" to="-172946090#1"/>
    <trip id="veh130" type="veh_passenger" depart="368.34" departLane="best" from="-143640445#0" to="68892946#2"/>
    <trip id="veh131" type="veh_passenger" depart="371.17" departLane="best" from="1127754132#4" to="69054717#1"/>
    <trip id="veh132" type="veh_passenger" depart="374.00" departLane="best" from="634155570#0" to="-1060102922#1"/>
    <trip id="veh133" type="veh_passenger" depart="376.84" departLane="best" from="1025867157#0" to="829341687#1"/>
    <trip id="veh134" type="veh_passenger" depart="379.67" departLane="best" from="10127482#8" to="143652160#1"/>
    <trip id="veh135" type="veh_passenger" depart="382.50" departLane="best" from="143652155#1" to="-684690206#3"/>
    <trip id="veh136" type="veh_passenger" depart="385.34" departLane="best" from="32896559#1" to="1190758972#0"/>
    <trip id="veh137" type="veh_passenger" depart="388.17" departLane="best" from="1025905875#0" to="10129403#3"/>
    <trip id="veh138" type="veh_passenger" depart="391.00" departLane="best" from="-1025534256#5" to="684465096#2"/>
    <trip id="veh139" type="veh_passenger" depart="393.84" departLane="best" from="69054715#4" to="1190620309#0"/>
    <trip id="veh140" type="veh_passenger" depart="396.67" departLane="best" from="620676019#1" to="1301835750#0"/>
    <trip id="veh141" type="veh_passenger" depart="399.50" departLane="best" from="-1303188495#0" to="-1274310928#0"/>
    <trip id="veh142" type="veh_passenger" depart="402.34" departLane="best" from="10138254#3" to="68892947#5"/>
    <trip id="veh143" type="veh_passenger" depart="405.17" departLane="best" from="477609213#0" to="669250712#3"/>
    <trip id="veh144" type="veh_passenger" depart="408.00" departLane="best" from="68892947#4" to="-290431864#4"/>
    <trip id="veh145" type="veh_passenger" depart="410.84" departLane="best" from="-659479035#3" to="1086822706#1"/>
    <trip id="veh146" type="veh_passenger" depart="413.67" departLane="best" from="416766496#0" to="684465096#3"/>
    <trip id="veh147" type="veh_passenger" depart="416.50" departLane="best" from="1025533353#7" to="1328977405#0"/>
    <trip id="veh148" type="veh_passenger" depart="419.34" departLane="best" from="-1307522019" to="828456095#0"/>
    <trip id="veh149" type="veh_passenger" depart="422.17" departLane="best" from="675221039#0" to="832249716#0"/>
    <trip id="veh150" type="veh_passenger" depart="425.00" departLane="best" from="552467147#0" to="105826032#1"/>
    <trip id="veh151" type="veh_passenger" depart="427.84" departLane="best" departSpeed="max" from="-10141812#1" to="290431864#5"/>
    <trip id="veh152" type="veh_passenger" depart="430.67" departLane="best" from="-10151104#5" to="828477290#0"/>
    <trip id="veh153" type="veh_passenger" depart="433.50" departLane="best" from="48707621#4" to="675221039#0"/>
    <trip id="veh154" type="veh_passenger" depart="436.34" departLane="best" from="552467147#0" to="-704074200#2"/>
    <trip id="veh155" type="veh_passenger" depart="439.17" departLane="best" from="416768149#0" to="1190539539#2"/>
    <trip id="veh156" type="veh_passenger" depart="442.00" departLane="best" from="-675221063#1" to="-659479035#4"/>
    <trip id="veh157" type="veh_passenger" depart="444.84" departLane="best" from="-416766480" to="552467179#1"/>
    <trip id="veh158" type="veh_passenger" depart="447.67" departLane="best" from="-1086822700#0" to="10136870#1"/>
    <trip id="veh159" type="veh_passenger" depart="450.50" departLane="best" departSpeed="max" from="-10141812#1" to="-145294132#4"/>
    <trip id="veh160" type="veh_passenger" depart="453.34" departLane="best" from="10150500#1" to="675221043#1"/>
    <trip id="veh161" type="veh_passenger" depart="456.17" departLane="best" from="829867669#1" to="829341689#0"/>
    <trip id="veh162" type="veh_passenger" depart="459.00" departLane="best" from="143652155#6" to="-1025530502#5"/>
    <trip id="veh163" type="veh_passenger" depart="461.84" departLane="best" from="832609618#3" to="1190557485"/>
    <trip id="veh164" type="veh_passenger" depart="464.67" departLane="best" from="829341691#4" to="-1190541487"/>
    <trip id="veh165" type="veh_passenger" depart="467.50" departLane="best" from="829867671#1" to="-143640445#0"/>
    <trip id="veh166" type="veh_passenger" depart="470.34" departLane="best" from="829867668#0" to="704074200#1"/>
    <trip id="veh167" type="veh_passenger" depart="473.17" departLane="best" from="1086822706#2" to="1025920372#1"/>
    <trip id="veh168" type="veh_passenger" depart="476.00" departLane="best" from="288352347#4" to="10141422#6"/>
    <trip id="veh169" type="veh_passenger" depart="478.84" departLane="best" from="1323740978" to="1173614699#1"/>
    <trip id="veh170" type="veh_passenger" depart="481.67" departLane="best" from="1025528917#4" to="1294634269"/>
    <trip id="veh171" type="veh_passenger" depart="484.50" departLane="best" from="675221069#1" to="198549589#3"/>
    <trip id="veh172" type="veh_passenger" depart="487.34" departLane="best" from="-10127482#4" to="785681844#1"/>
    <trip id="veh173" type="veh_passenger" depart="490.17" departLane="best" from="1190597558#0" to="198549614#1"/>
    <trip id="veh174" type="veh_passenger" depart="493.00" departLane="best" from="32896559#2" to="145041514#8"/>
    <trip id="veh175" type="veh_passenger" depart="495.84" departLane="best" from="1024519085#0" to="-1025534256#5"/>
    <trip id="veh176" type="veh_passenger" depart="498.67" departLane="best" from="145040499#2" to="10150500#4"/>
    <trip id="veh177" type="veh_passenger" depart="501.50" departLane="best" from="10141540#2" to="634155604#3"/>
    <trip id="veh178" type="veh_passenger" depart="504.34" departLane="best" from="198549614#2" to="10128206#3"/>
    <trip id="veh179" type="veh_passenger" depart="507.17" departLane="best" from="10138351#4" to="1025533353#8"/>
    <trip id="veh180" type="veh_passenger" depart="510.00" departLane="best" from="1025530503#5" to="10127724#1"/>
    <trip id="veh181" type="veh_passenger" depart="512.84" departLane="best" from="-1190557485" to="1025534258#0"/>
    <trip id="veh182" type="veh_passenger" depart="515.67" departLane="best" from="829341691#6" to="146293944#3"/>
    <trip id="veh183" type="veh_passenger" depart="518.50" departLane="best" from="69054715#3" to="1328972689"/>
    <trip id="veh184" type="veh_passenger" depart="521.34" departLane="best" from="10127725#5" to="1190621105#0"/>
    <trip id="veh185" type="veh_passenger" depart="524.17" departLane="best" from="-10127482#10" to="-978430255#2"/>
    <trip id="veh186" type="veh_passenger" depart="527.00" departLane="best" from="1025905876#0" to="1300633427#1"/>
    <trip id="veh187" type="veh_passenger" depart="529.84" departLane="best" from="144482817#4" to="1086822703#1"/>
    <trip id="veh188" type="veh_passenger" depart="532.67" departLane="best" from="684465036#0" to="-352318318#0"/>
    <trip id="veh189" type="veh_passenger" depart="535.50" departLane="best" from="1092124633#0" to="69054715#2"/>
    <trip id="veh190" type="veh_passenger" depart="538.34" departLane="best" from="-1025920370#2" to="1174223767#2"/>
    <trip id="veh191" type="veh_passenger" depart="541.17" departLane="best" from="143640440#5" to="-1021492634#1"/>
    <trip id="veh192" type="veh_passenger" depart="544.00" departLane="best" from="552467179#1" to="346397959#2"/>
    <trip id="veh193" type="veh_passenger" depart="546.84" departLane="best" from="145221070#0" to="-416768135#1"/>
    <trip id="veh194" type="veh_passenger" depart="549.67" departLane="best" from="-145294132#4" to="-10146787#2"/>
    <trip id="veh195" type="veh_passenger" depart="552.50" departLane="best" from="-634155566#2" to="-1090197062#3"/>
    <trip id="veh196" type="veh_passenger" depart="555.34" departLane="best" from="634155614#3" to="1025539161#1"/>
    <trip id="veh197" type="veh_passenger" depart="558.17" departLane="best" from="1025533366#0" to="1347280388"/>
    <trip id="veh198" type="veh_passenger" depart="561.00" departLane="best" from="-145221068#1" to="-1190533992#0"/>
    <trip id="veh199" type="veh_passenger" depart="563.84" departLane="best" from="1131610190#1" to="655465148#3"/>
    <trip id="veh200" type="veh_passenger" depart="566.67" departLane="best" from="144482817#5" to="-10127724#3"/>
    <trip id="veh201" type="veh_passenger" depart="569.50" departLane="best" from="346397959#0" to="143652160#1"/>
    <trip id="veh202" type="veh_passenger" depart="572.34" departLane="best" from="-1086822706#0" to="-1025867156#3"/>
    <trip id="veh203" type="veh_passenger" depart="575.17" departLane="best" from="-1328972698" to="829867666#1"/>
    <trip id="veh204" type="veh_passenger" depart="578.00" departLane="best" from="1190539540#1" to="-1025530501#0"/>
    <trip id="veh205" type="veh_passenger" depart="580.84" departLane="best" from="659479035#2" to="634155604#4"/>
    <trip id="veh206" type="veh_passenger" depart="583.67" departLane="best" from="1060102922#0" to="487737388#1"/>
    <trip id="veh207" type="veh_passenger" depart="586.50" departLane="best" from="684465110#2" to="1324154498#2"/>
    <trip id="veh208" type="veh_passenger" depart="589.34" departLane="best" from="198549614#1" to="1163610279#0"/>
    <trip id="veh209" type="veh_passenger" depart="592.17" departLane="best" from="620676001#2" to="346397963#1"/>
    <trip id="veh210" type="veh_passenger" depart="595.00" departLane="best" from="68892947#2" to="785681844#1"/>
    <trip id="veh211" type="veh_passenger" depart="597.84" departLane="best" from="829867666#2" to="-684690206#0"/>
    <trip id="veh212" type="veh_passenger" depart="600.67" departLane="best" from="-655465148#3" to="143652155#2"/>
    <trip id="veh213" type="veh_passenger" depart="603.50" departLane="best" from="361951546#1" to="1190539540#1"/>
    <trip id="veh214" type="veh_passenger" depart="606.34" departLane="best" from="1347275589#0" to="-828477290#1"/>
    <trip id="veh215" type="veh_passenger" depart="609.17" departLane="best" from="-1025539161#1" to="-935202151"/>
    <trip id="veh216" type="veh_passenger" depart="612.00" departLane="best" from="749746263#0" to="10141812#1"/>
    <trip id="veh217" type="veh_passenger" depart="614.84" departLane="best" from="1190597565#0" to="-1301814925"/>
    <trip id="veh218" type="veh_passenger" depart="617.67" departLane="best" from="190354926#0" to="1025533353#8"/>
    <trip id="veh219" type="veh_passenger" depart="620.50" departLane="best" from="-1025533353#9" to="-1190597558#0"/>
    <trip id="veh220" type="veh_passenger" depart="623.34" departLane="best" from="1025533366#1" to="-290431847#0"/>
    <trip id="veh221" type="veh_passenger" depart="626.17" departLane="best" from="1025539161#0" to="69054715#5"/>
    <trip id="veh222" type="veh_passenger" depart="629.00" departLane="best" from="1301869942#2" to="152356345"/>
    <trip id="veh223" type="veh_passenger" depart="631.84" departLane="best" from="659463304#2" to="361951546#3"/>
    <trip id="veh224" type="veh_passenger" depart="634.67" departLane="best" from="1025528916#4" to="-10127724#3"/>
    <trip id="veh225" type="veh_passenger" depart="637.50" departLane="best" from="1024402667#0" to="346397959#4"/>
    <trip id="veh226" type="veh_passenger" depart="640.34" departLane="best" from="655465149#1" to="829867664#0"/>
    <trip id="veh227" type="veh_passenger" depart="643.17" departLane="best" from="1190621715#0" to="-1313323853#2"/>
    <trip id="veh228" type="veh_passenger" depart="646.00" departLane="best" from="-361937835#1" to="-416766480"/>
    <trip id="veh229" type="veh_passenger" depart="648.84" departLane="best" from="1030759150#0" to="10151104#5"/>
    <trip id="veh230" type="veh_passenger" depart="651.67" departLane="best" from="1024402657#0" to="146293944#6"/>
    <trip id="veh231" type="veh_passenger" depart="654.50" departLane="best" from="1025533353#2" to="-1324154497#3"/>
    <trip id="veh232" type="veh_passenger" depart="657.34" departLane="best" from="-1086822706#0" to="-1274310928#0"/>
    <trip id="veh233" type="veh_passenger" depart="660.17" departLane="best" from="1303307213#1" to="-10150309#2"/>
    <trip id="veh234" type="veh_passenger" depart="663.00" departLane="best" from="1025530501#1" to="1213065902#1"/>
    <trip id="veh235" type="veh_passenger" depart="665.84" departLane="best" from="-1294636485#0" to="1067489911#3"/>
    <trip id="veh236" type="veh_passenger" depart="668.67" departLane="best" from="1025528919#6" to="1025528915#4"/>
    <trip id="veh237" type="veh_passenger" depart="671.50" departLane="best" from="-172946090#6" to="10149528#2"/>
    <trip id="veh238" type="veh_passenger" depart="674.34" departLane="best" from="351018000#4" to="1025528915#4"/>
    <trip id="veh239" type="veh_passenger" depart="677.17" departLane="best" from="346397959#0" to="620676001#4"/>