<?xml version="1.0" encoding="UTF-8"?>

<!-- generated on 2025-02-12 17:19:01.687338 by $Id: ptlines2flows.py v1_3_1+0313-ccb31df3eb jakob.erdmann@dlr.de 2019-09-02 13:26:32 +0200 $ v1_21_0+1021-4606c0d7274
<configuration>
    <net-file value="/Users/dhrishajgarg/sumo/tools/2025-02-12-17-18-50/osm.net.xml.gz"/>
    <ptlines-file value="/Users/dhrishajgarg/sumo/tools/2025-02-12-17-18-50/osm_ptlines.xml"/>
    <ptstops-file value="/Users/dhrishajgarg/sumo/tools/2025-02-12-17-18-50/osm_stops.add.xml"/>
    <output-file value="/Users/dhrishajgarg/sumo/tools/2025-02-12-17-18-50/osm_pt.rou.xml"/>
    <stopinfos-file value="/Users/dhrishajgarg/sumo/tools/2025-02-12-17-18-50/stopinfos.xml"/>
    <routes-file value="/Users/dhrishajgarg/sumo/tools/2025-02-12-17-18-50/vehroutes.xml"/>
    <trips-file value="/Users/dhrishajgarg/sumo/tools/2025-02-12-17-18-50/trips.trips.xml"/>
    <min-stops value="0"/>
    <extend-to-fringe value="True"/>
    <random-begin value="True"/>
    <seed value="42"/>
    <ignore-errors value="True"/>
    <vtype-prefix value="pt_"/>
    <verbose value="True"/>
</configuration>
-->

<routes xmlns:xsi="http://www.w3.org/2001/XMLSchema-instance" xsi:noNamespaceSchemaLocation="http://sumo.dlr.de/xsd/routes_file.xsd">
    <vType id="pt_bus" vClass="bus" speedFactor="0.95"/>
    <vType id="pt_tram" vClass="tram" speedFactor="1.0"/>
    <vType id="pt_train" vClass="rail"/>
    <vType id="pt_subway" vClass="subway"/>
    <vType id="pt_light_rail" vClass="rail_urban"/>
    <vType id="pt_monorail" vClass="rail_urban"/>
    <vType id="pt_trolleybus" vClass="bus" speedFactor="0.95"/>
    <vType id="pt_minibus" vClass="bus" speedFactor="0.95"/>
    <vType id="pt_share_taxi" vClass="taxi" speedFactor="0.95"/>
    <vType id="pt_aerialway" vClass="cable_car" length="2.5" width="2" personCapacity="4"/>
    <vType id="pt_ferry" vClass="ship"/>
    <trip id="0_bus_1:0" type="pt_bus" depart="15.0" departLane="best" from="382417140#0" to="-10150309#2">
        <stop busStop="10028415195" duration="30"/>  <!-- South Temple @ F Street -->
    </trip>
    <trip id="1_bus_1:1" type="pt_bus" depart="52.0" departLane="best" from="288352347#1" to="-382417140#1">
        <stop busStop="-10028415194" duration="30"/>  <!-- South Temple @ 300 East -->
        <stop busStop="-10028415192" duration="30"/>  <!-- South Temple @ 400 East -->
    </trip>
    <trip id="2_light_rail_703:0" type="pt_light_rail" depart="133.0" departLane="best" from="145012014#0" to="254604695#8">
        <stop busStop="1584802910" duration="30"/>  <!-- Trolley -->
        <stop busStop="1584802892" duration="30"/>  <!-- Library -->
        <stop busStop="5919129374" duration="30"/>  <!-- Courthouse -->
    </trip>
    <trip id="3_bus_Brown:0" type="pt_bus" depart="165.0" departLane="best" from="-1086822701#1" to="1086822701#0">
        <stop busStop="-6459176502" duration="30"/>  <!-- Business Services Building -->
    </trip>
    <trip id="4_light_rail_703:1" type="pt_light_rail" depart="253.0" departLane="best" from="-348043138#8" to="145012015#13">
        <stop busStop="-5919129373" duration="30"/>  <!-- Courthouse -->
        <stop busStop="1584813022" duration="30"/>  <!-- Library -->
        <stop busStop="1584813024" duration="30"/>  <!-- Trolley -->
    </trip>
    <trip id="5_light_rail_704:0" type="pt_light_rail" depart="383.0" departLane="best" from="283890171#37" to="254604695#1">
        <stop busStop="5919129381" duration="30"/>  <!-- Arena -->
        <stop busStop="5919129379" duration="30"/>  <!-- Temple Square -->
        <stop busStop="5919129378" duration="30"/>  <!-- City Center -->
        <stop busStop="5919129375" duration="30"/>  <!-- Gallivan Plaza -->
        <stop busStop="5919129374" duration="30"/>  <!-- Courthouse -->
    </trip>
    <trip id="6_light_rail_701:0" type="pt_light_rail" depart="406.0" departLane="best" from="348043138#1" to="106345198#36">
        <stop busStop="5919129373" duration="30"/>  <!-- Courthouse -->
        <stop busStop="1226595410" duration="30"/>  <!-- Gallivan Plaza -->
        <stop busStop="1226596243" duration="30"/>  <!-- City Center -->
        <stop busStop="5919129380" duration="30"/>  <!-- Temple Square -->
        <stop busStop="1226596499" duration="30"/>  <!-- Arena -->
    </trip>
    <trip id="7_light_rail_704:1" type="pt_light_rail" depart="441.0" departLane="best" from="348043138#1" to="106345198#36">
        <stop busStop="5919129373" duration="30"/>  <!-- Courthouse -->
        <stop busStop="1226595410" duration="30"/>  <!-- Gallivan Plaza -->
        <stop busStop="1226596243" duration="30"/>  <!-- City Center -->
        <stop busStop="5919129380" duration="30"/>  <!-- Temple Square -->
        <stop busStop="1226596499" duration="30"/>  <!-- Arena -->
    </trip>
    <trip id="8_light_rail_701:1" type="pt_light_rail" depart="535.0" departLane="best" from="283890171#37" to="254604695#1">
        <stop busStop="5919129381" duration="30"/>  <!-- Arena -->
        <stop busStop="5919129379" duration="30"/>  <!-- Temple Square -->
        <stop busStop="5919129378" duration="30"/>  <!-- City Center -->
        <stop busStop="5919129375" duration="30"/>  <!-- Gallivan Plaza -->
        <stop busStop="5919129374" duration="30"/>  <!-- Courthouse -->
    </trip>
</routes>
