<?xml version="1.0" encoding="UTF-8"?>

<!-- generated on 2025-01-23 16:04:36 by Eclipse SUMO netedit Version v1_21_0+1021-4606c0d7274
-->

<additional xmlns:xsi="http://www.w3.org/2001/XMLSchema-instance" xsi:noNamespaceSchemaLocation="http://sumo.dlr.de/xsd/additional_file.xsd">
</additional>
