<?xml version="1.0" encoding="UTF-8"?>

<!-- generated on 2025-02-21 17:41:24.979262 by randomTrips.py v1_21_0+1021-4606c0d7274
<configuration>
    <net-file value="osm.net.xml.gz"/>
    <output-trip-file value="osm.passenger.trips.high.xml"/>
    <route-file value="osm.passenger.rou.high.xml"/>
    <prefix value="veh"/>
    <trip-attributes value="departLane=&quot;best&quot;"/>
    <fringe-start-attributes value="departSpeed=&quot;max&quot;"/>
    <vehicle-class value="passenger"/>
    <lanes value="True"/>
    <fringe-factor value="7"/>
    <allow-fringe.min-length value="1000.0"/>
    <via-edge-types value="highway.motorway,highway.motorway_link,highway.trunk_link,highway.primary_link,highway.secondary_link,highway.tertiary_link"/>
    <min-distance value="300.0"/>
    <min-distance.fringe value="10.0"/>
    <remove-loops value="True"/>
    <validate value="True"/>
    <insertion-density value="40.0"/>
</configuration>
-->

<!-- generated on 2025-02-21 17:41:24 by Eclipse SUMO duarouter Version v1_21_0+1021-4606c0d7274
<duarouterConfiguration xmlns:xsi="http://www.w3.org/2001/XMLSchema-instance" xsi:noNamespaceSchemaLocation="http://sumo.dlr.de/xsd/duarouterConfiguration.xsd">

    <input>
        <net-file value="osm.net.xml.gz"/>
        <route-files value="osm.passenger.trips.high.xml"/>
    </input>

    <output>
        <output-file value="osm.passenger.rou.high.xml"/>
        <alternatives-output value="NUL"/>
    </output>

    <processing>
        <remove-loops value="true"/>
    </processing>

    <time>
        <begin value="0.0"/>
        <end value="3600.0"/>
    </time>

    <report>
        <no-warnings value="true"/>
        <ignore-errors value="true"/>
        <no-step-log value="true"/>
    </report>

</duarouterConfiguration>
-->

<routes xmlns:xsi="http://www.w3.org/2001/XMLSchema-instance" xsi:noNamespaceSchemaLocation="http://sumo.dlr.de/xsd/routes_file.xsd">
    <vType id="veh_passenger" vClass="passenger"/>
    <vType id="emergency" vClass="emergency" color="white"/>
    <vehicle id="veh0" type="veh_passenger" depart="0.00" departLane="best">
        <route edges="27930285#7 27930285#8 27930285#9 27930285#10 27930285#11 27930285#13 27930285#15 27930285#17 27930285#18 -8057870#16 -8057870#13 -8057870#11 -8057870#10 -8057870#9 -8057870#5 -8057870#4 -8057870#3 -4741125#0 -631036134#7 -631036134#6 -631036134#4 -631036134#3 -631036134#1 -631036134#0 -4741123 4808620#0 4808620#2 1006421041 -780336#7 -780336#6 -780336#5 -780336#4 -780336#3 -780336#2 1001052089#2"/>
    </vehicle>
    <vehicle id="veh1" type="veh_passenger" depart="1.68" departLane="best">
        <route edges="4741125#10 4741125#11 4741125#12 4741125#13 4741125#15 4741125#18 4741125#19 -660547380#2 -660547380#1 -660547380#0 1128395116 1006428687#0 -1241211927#4 -1241211927#3 -1241211927#1 -1241211927#0 -117960883#3 -117960883#2 -117960883#0 27681443#1 1067005206#0 1067005206#1 1001045463#0 1001045462#1 156465747#0 156465747#1 -1250952440#1 -1250952440#0 -693555192#1 -693555192#0 -156465749#2 -156465749#1 -4302843#5 -4302843#3"/>
    </vehicle>
    <vehicle id="veh2" type="veh_passenger" depart="3.36" departLane="best">
        <route edges="4302843#4 1290645106#1 156465749#2 693555192#0 693555192#1 1250952440#0 1250952440#1 191973555#0 191973555#1 1001045461#0 783634#0 783634#1 783634#2 1067005198#0 1006432263#0 117960883#0 117960883#1 117960883#3 1241211927#0 1241211927#1 1241211927#2 1241211927#4 1279205443#0 1279205443#1 1279205442#0 1279205442#1 83299924#1 83299924#3 83299915 -545451602#2 -545451602#1 -545451602#0 -1006421035 -1006440424#2 -1006440424#1 -1006440424#0 -28008177#0 -27930596#11 -27930596#10 -27930596#9 28008179#1"/>
    </vehicle>
    <vehicle id="veh3" type="veh_passenger" depart="5.05" departLane="best">
        <route edges="671967031#15 671967031#17 -27930621#43 -27930621#42 -27930621#41 -27930621#39 -27930621#38 -27930621#36 -27930621#35 -27930621#31 -27930621#30 -27930621#29 -27930621#26 -27930621#25 -27930621#18 -27930621#17 -27930621#15 -27930621#14 -27930621#13 -27930621#12 -27930621#10 -27930621#9 -27930621#6 -27930621#1 -4721530#8 -4721530#7 -4721530#5 -4721530#4 -4721530#2 -4721530#1 -4721530#0 -660547380#2 -660547380#1 -660547380#0 1128395116 1006428687#0 -1241211927#4 -1241211927#3 -1241211927#1 -1241211927#0 -117960883#3 -117960883#2 -117960883#0 27681443#1 1067005206#0 1067005206#1 1001045463#0 1001045462#1 156465747#0 156465747#1 -1250952440#1 -1250952440#0 1290645109#1 1290645110#1 1290645111 1069076529#1 1069076529#2 1069076529#3 1069076529#4 -4422126#3 -4422126#2 -4422126#1 -4422126#0 -4516374#7 -4516374#6 -4516374#5 -4516374#4 -4516374#3 -4516374#2 -4516374#1 -4516374#0 555566857 628628134 1005337074#1 1005337074#2 613782963 1001067102#0 1001067102#1 1001067102#2 1001067102#3 1005337072 1005337073#5 28019543#0 28019543#1 28019543#2 -172545298#1 -172545298#0"/>
    </vehicle>
    <vehicle id="veh4" type="veh_passenger" depart="6.73" departLane="best" departSpeed="max">
        <route edges="1000824085 1128395118 154979768#1 -1006432267#1 -1006432267#0 -4575267#3 -4575267#1 -4575267#0 -86326107 -4721529#2 -4721529#1 -4721529#0 -27683089#29 -27683089#28 -27683089#27 -27683089#25 -27683089#24 -27683089#22 -27683089#21 -27683089#20 -27683089#17 -27683089#16 -27683089#11 -27683089#10 -1204821212#13 -1204821212#12"/>
    </vehicle>
    <vehicle id="veh5" type="veh_passenger" depart="8.41" departLane="best">
        <route edges="-28156123#5 -28156123#1 -28156123#0 -28008218#22 -28008218#20 -28008218#19 -28008218#18 -28008218#14 -28008218#10 -28008218#9 -28008218#6 -28008218#2 -28008218#1 -4721530#10 -4721530#8 -4721530#7 -4721530#5 -4721530#4 -4721530#2 -4721530#1 -4721530#0 -660547380#2 -660547380#1 -660547380#0 1128395116 1006428687#0 -1241211927#4 -1241211927#3 -1241211927#1 -1241211927#0 -117960883#3 -117960883#2 -117960883#0 27681443#1 1067005206#0 1067005206#1 1001045463#0 1001045462#1 156465747#0 156465747#1 -1250952440#1 -1250952440#0 -4810591#1 -4469144#11 620887142#1 620887142#2 1255276395#1 1255276395#2"/>
    </vehicle>
    <vehicle id="veh6" type="veh_passenger" depart="10.09" departLane="best">
        <route edges="117960883#0 117960883#1 117960883#3 1241211927#0 1241211927#1 1241211927#2 1241211927#4 1006428686#1 660547380#0 660547380#1 660547380#2 4721530#0 4721530#1 4721530#2 4721530#4 4721530#5 4721530#7 4721530#8 4721530#10 28008218#1 28008218#2 28008218#6 28008218#9 28008218#10 28008218#14 28008218#18"/>
    </vehicle>
    <vehicle id="veh7" type="veh_passenger" depart="11.77" departLane="best">
        <route edges="-27930596#6 -27930596#3 -27930596#2 -27930596#1 86326091#2 86326091#3 86326091#4 86326091#5 86326091#6 86326091#7 86326091#8 86326091#9 86326091#10 86326091#11 86326091#14 613788731 1001179064#0 1001179064#1 1001179064#2 1001179065 930978#0 930978#1 930978#2 154565321"/>
    </vehicle>
    <vehicle id="veh9" type="veh_passenger" depart="15.14" departLane="best">
        <route edges="28008211#2 -4741117#7 -4741117#6 -4741117#1 86326117#2 86326117#3 86326091#1 86326091#2 86326091#3 86326091#4 86326091#5 86326091#6 86326091#7 86326091#8 86326091#9 86326091#10 86326091#11 79714512#1 79714512#2 -4721530#15 -4721530#14 -4721530#13 27930620#1 27930620#2 27930620#4 27930620#5 27930620#8 27930620#9 27930620#11"/>
    </vehicle>
    <vehicle id="veh10" type="veh_passenger" depart="16.82" departLane="best">
        <route edges="808525251#1 808525251#2 808525251#3 876658458 145028552 561850295#0 561850295#2 561850295#3 561850295#4 561680353 4251234#0 4251234#1 4251234#2 818393761 818393760 23979306 555527550#0 555527550#1 555566891#6"/>
    </vehicle>
    <vehicle id="veh11" type="veh_passenger" depart="18.50" departLane="best">
        <route edges="4810585#0 4810585#2 4810584#7 -4810589#3 -4810589#2 -4810589#1 4469144#11 4810591#1 1250952440#0 1250952440#1 191973555#0 191973555#1 1001045461#0 783634#0 783634#1 783634#2 1067005198#0 1006432263#0 -1006432267#1 -1006432267#0 -4575267#3 -4575267#1 -4575267#0 1241211961#0 1241211961#1 27683075#3 27683075#4 27683075#6"/>
    </vehicle>
    <vehicle id="veh12" type="veh_passenger" depart="20.18" departLane="best">
        <route edges="4759427#0 1006536034 1006536035#4 136104873#0 136104873#1 136104873#3 136104873#4 818393761 818393760 154830384#0 808572852 808525245#0 808525245#4 808536204#0 808536205#2 876658460#0 808525251#0 808525251#1 808525251#2 808525251#3 876658458 998444958 4251188#0 4353079#1"/>
    </vehicle>
    <vehicle id="veh13" type="veh_passenger" depart="21.86" departLane="best">
        <route edges="-1336569593#2 -1336569593#1 79819327#0 -172068741#0 -165420771#3 -165420771#2 -165420771#1 -165420771#0 4810591#1 1250952440#0 1250952440#1 191973555#0 191973555#1 1001045461#0 783634#0 783634#1 783634#2 1067005198#0 1006432263#0 117960883#0 117960883#1 117960883#3 1241211927#0 1241211927#1 1241211927#2 1241211927#4 1006428686#1 660547380#0 660547380#1 660547380#2 4721530#0 4721530#1 4721530#2 4721530#4 4721530#5 4721530#7 4721530#8 4721530#10 4721530#12 4721530#13 4721530#14 4721530#15 4721530#16 1278441846#0 171629747#0 171629747#1 1001179064#2 1001179065 930978#0 930978#1 930978#2 1001406920 1003656164 613788732 -86326091#15 -86326091#11 -86326091#10 -86326091#9 -86326091#8 -86326091#7 -86326091#6 -86326091#5 -86326091#4 -86326091#3 -86326091#2"/>
    </vehicle>
    <vehicle id="veh14" type="veh_passenger" depart="23.55" departLane="best">
        <route edges="-79707628#9 -79707628#7 -79707628#6 -79707628#3 -79707628#2 -79707628#1 189540210#1 -27683075#9 -27683075#8 -27683075#7 -27683075#6 -27683075#4 -27683075#3 -86326093#0 -1241211961#0 4575267#0 4575267#1 4575267#2 1006432267#0 1006432267#1 27681443#1 1067005206#0 1067005206#1 1001045463#0 1001045462#1 156465747#0 156465747#1 -1250952440#1 -1250952440#0 -693555192#1 -693555192#0 -156465749#2"/>
    </vehicle>
    <vehicle id="veh15" type="veh_passenger" depart="25.23" departLane="best">
        <route edges="-4810577#15 -4810577#13 -4810577#12 -4810577#6 -4810577#5 -4810577#4 -4810577#3 -4810577#2 4469144#6 4469144#7 4469144#8 4469144#9 4469144#11 4810591#1 1250952440#0 1250952440#1 191973555#0 191973555#1 1001045461#0 783634#0 783634#1 783634#2 1067005198#0 1006432263#0 117960883#0 117960883#1 117960883#3 1241211927#0 1241211927#1 1241211927#2 1241211927#4 1006428686#1 660547380#0 660547380#1 660547380#2 4721530#0 4721530#1 4721530#2 4721530#4 4721530#5 4721530#7 4721530#8 -702738549#16 -702738549#15 -702738549#14 -702738549#12 -702738549#11 27683100#0 27683100#1"/>
    </vehicle>
    <vehicle id="veh17" type="veh_passenger" depart="28.59" departLane="best">
        <route edges="28008219#9 28008219#10 28008219#12 28008219#13 28008219#16 28008219#19 28008219#20 28008219#21 28008219#22 -27930621#12 -27930621#10 -27930621#9 -27930621#6 -27930621#1 -4721530#8 -4721530#7 -4721530#5 -4721530#4 -4721530#2 -4721530#1 -4721530#0 -660547380#2 -660547380#1 -660547380#0 1128395116 1006428687#0 1279205443#0 1279205443#1"/>
    </vehicle>
    <vehicle id="veh18" type="veh_passenger" depart="30.27" departLane="best">
        <route edges="-4353079#2 -4353079#1 4516415#1 4516415#2 -8056015#4 -79819328#4 -79819328#3 4810629#1 4810629#2 4810629#3 4810629#4 -4810584#17 -4810584#15 -4810584#13 -4810584#10 -4810584#7 -4810584#4 -4810584#1 4810577#5 4810577#6 4810577#12 4810577#13 -4810578#5 -4810578#4 -4810578#3 -4810578#2 -4810578#1 -4810578#0 -4810575#19 -4810575#18 -4810575#17 -4810575#15 -4810575#14 -4810575#11 -4810575#10"/>
    </vehicle>
    <vehicle id="veh20" type="veh_passenger" depart="33.64" departLane="best">
        <route edges="-203227845#0 -4810754#3 -4810754#2 -4810754#1 196776972 4353081#0 4353081#1 1290645106#1 156465749#2 693555192#0 693555192#1 1250952440#0 1250952440#1 191973555#0 191973555#1 1001045461#0 783634#0 783634#1 783634#2 1067005198#0 1006432263#0 117960883#0 117960883#1 117960883#3 1241211927#0 1241211927#1 1241211927#2 1241211927#4 1006428686#1 660547380#0 660547380#1 660547380#2 -4741125#19 -4741125#18 -4741125#15 -4741125#13"/>
    </vehicle>
    <vehicle id="veh21" type="veh_passenger" depart="35.32" departLane="best">
        <route edges="-27930285#1 -27930285#0 4741125#18 4741125#19 -660547380#2 -660547380#1 -660547380#0 1128395116 1006428687#0 1279205443#0 1279205443#1 1279205442#0 -780214#7 -780214#6 -780214#5"/>
    </vehicle>
    <vehicle id="veh22" type="veh_passenger" depart="37.00" departLane="best">
        <route edges="-79707615#6 -79707615#5 -79707615#3 -79707615#2 -27683089#17 -27683089#16 702738549#1 702738549#2 702738549#3 702738549#4 702738549#5 702738549#6 702738549#7 702738549#11 702738549#12 702738549#14 702738549#15 702738549#16 27930621#1 27930621#6 27930621#9 27930621#10 27930621#12 27930621#13 27930621#14 27930621#15 27930621#17 27930621#18 27930621#25 27930621#26 27930621#29 27930621#30 27930621#31 -28008220#27 -28008220#24 -28008220#19"/>
    </vehicle>
    <vehicle id="veh23" type="veh_passenger" depart="38.68" departLane="best">
        <route edges="-4721530#13 -4721530#12 -4721530#10 -4721530#8 -4721530#7 -4721530#5 -4721530#4 -4721530#2 -4721530#1 -4721530#0 -660547380#2 -660547380#1 -660547380#0 1128395116 1006428687#0 -1241211927#4 -1241211927#3 -1241211927#1 -1241211927#0 -117960883#3 -117960883#2 -117960883#0 27681443#1 1067005206#0 1067005206#1 1001045463#0 1001045462#1 156465747#0 156465747#1 -1250952440#1 -1250952440#0 -4810591#1 1251326603#1 4810592#1 4810626#1 4810626#2 4810626#3 4810626#4 79819328#0 79819328#1 79819328#2"/>
    </vehicle>
    <vehicle id="veh24" type="veh_passenger" depart="40.37" departLane="best">
        <route edges="-27930596#13 -27930596#12 28008177#0 1006440424#0 1006440424#1 1006440424#2 1006421035 545451602#0 545451602#1 545451602#2 1262942311 83299925#0 83299925#2 -254846268 -1006421042 -1279205442#0 -1279205443#2 -1279205443#0 1006428686#1 660547380#0 660547380#1 660547380#2 4721530#0 4721530#1 4721530#2 4721530#4 4721530#5 4721530#7 4721530#8 -702738549#16 -702738549#15 -702738549#14 -702738549#12 -702738549#11 -702738549#7 -702738549#6 -702738549#5 -702738549#4 -702738549#3 -79707615#9 -79707615#8 -79707615#6 -79707615#5 -79707615#3 -79707615#2 27683089#20 27683089#21 27683089#22 27683089#24 27683089#25"/>
    </vehicle>
    <vehicle id="veh25" type="veh_passenger" depart="42.05" departLane="best">
        <route edges="27930623#7 27930623#8 27930623#10 27930623#14 27930623#15 27930623#17 27930623#18 -27930621#1 -4721530#8 -4721530#7 -4721530#5 -4721530#4 -4721530#2 -4721530#1 -4721530#0 -660547380#2 -660547380#1 -660547380#0 1128395116 1006428687#0 -1241211927#4 -1241211927#3 -1241211927#1 -1241211927#0 -117960883#3 -117960883#2 -117960883#0 27681443#1 1067005206#0 1067005206#1 1001045463#0 1001045462#1 156465747#0 156465747#1 -1250952440#1 -1250952440#0 -4810591#1 1251326603#1 4810592#1 4810626#1 4810626#2 4810626#3 4810626#4 79819328#0 79819328#1 79819328#2 79819328#3 79819328#4 8056015#4 200899063 489138809#0 1074301970 4353083 4353079#0"/>
    </vehicle>
    <vehicle id="veh26" type="veh_passenger" depart="43.73" departLane="best">
        <route edges="-27930621#26 -27930621#25 -27930621#18 -27930621#17 -27930621#15 -27930621#14 -27930621#13 -27930621#12 -27930621#10 -27930621#9 -27930621#6 -27930621#1 -702738549#16 -702738549#15 -702738549#14 -702738549#12 -702738549#11 -702738549#7 -702738549#6 -702738549#5 -702738549#4 987276829#1 987276829#3 79707626#4 987276828#0 987276828#1 1263697477#1 -27683089#8 -987276834#8 -987276834#7 -987276834#3 -987276834#2 -987276834#1 987276833#15 987276833#16 987276833#17 -79708053#1 -79707628#3"/>
    </vehicle>
    <vehicle id="veh27" type="veh_passenger" depart="45.41" departLane="best" departSpeed="max">
        <route edges="167121167 1276582182#0 1276582182#1 930978#0 930978#1 930978#2 1001406920 1003656164 613788732 -86326091#15 -86326091#11 -86326091#10 -86326091#9 -86326091#8 -86326091#7 -86326091#6 -86326091#5 -86326091#4 -86326091#3 -86326091#2 -86326091#1 -86326091#0 -86326117#2 4741117#1 4741117#6 4741117#7 -656398106 -28008211#1 -28008211#0 28008209 28008207#1"/>
    </vehicle>
    <vehicle id="veh29" type="veh_passenger" depart="48.77" departLane="best">
        <route edges="-4353081#0 -172068741#0 -165420771#3 -165420771#2 -165420771#1 -165420771#0 4810591#1 1250952440#0 1250952440#1 191973555#0 191973555#1 1001045461#0 783634#0 783634#1 783634#2 1067005198#0 1006432263#0 -1006432267#1 -1006432267#0 -4575267#3 -4575267#1 -4575267#0 -86326107 -4721529#2 -4721529#1 -4721529#0 -27683089#29 -27683089#28 -27683089#27 -27683089#25 -27683089#24 -27683089#22 -27683089#21 -27683089#20 -27683089#17 -27683089#16 -27683089#11 -27683089#10 -1204821212#13 -1204821212#12 -1204821212#11 -1204821212#9 -1204821212#7"/>
    </vehicle>
    <vehicle id="veh30" type="veh_passenger" depart="50.46" departLane="best">
        <route edges="-4810587#1 4469144#7 4469144#8 4469144#9 4469144#11 4810591#1 1250952440#0 1250952440#1 191973555#0 191973555#1 1001045461#0 783634#0 783634#1 783634#2 1067005198#0 1006432263#0 117960883#0 117960883#1 117960883#3 1241211927#0 1241211927#1 1241211927#2 1241211927#4 1006428686#1 660547380#0 660547380#1 660547380#2 4721530#0 4721530#1 4721530#2 4721530#4 4721530#5 4721530#7 4721530#8 4721530#10"/>
    </vehicle>
    <vehicle id="veh31" type="veh_passenger" depart="52.14" departLane="best">
        <route edges="-28008220#7 -28008220#5 -28008220#3 -28008220#2 -28008220#1 -28008218#22 -28008218#20 -28008218#19 -28008218#18 -28008218#14 -28008218#10 -28008218#9 -28008218#6 -28008218#2 -28008218#1 -4721530#10 -4721530#8 -4721530#7 -4721530#5 -4721530#4 -4721530#2 -4721530#1 -4721530#0 -660547380#2 -660547380#1 -660547380#0 1128395116 1006428687#0 -1241211927#4 -1241211927#3 -1241211927#1 -1241211927#0 -117960883#3 -117960883#2 -117960883#0 -154979768#2 -154979768#0 154979769#2 215668326 154979766#0 154979766#1 79824393#1 79824393#2 79824393#3"/>
    </vehicle>
    <vehicle id="veh32" type="veh_passenger" depart="53.82" departLane="best">
        <route edges="613782963 1001067101 1001067100#0 1001067100#1 1001067100#2 555566859 4516374#0 4516374#1 4516374#2 4810575#0 4810575#1 4810575#2 4810576#5 4810576#7 4810580#1 4810580#2 4810580#3 4810580#4 4810584#1 4810584#4 4810584#7 4810584#10 4810584#13 4810584#15 4810584#17 4810584#20 4810584#21"/>
    </vehicle>
    <vehicle id="veh33" type="veh_passenger" depart="55.50" departLane="best">
        <route edges="27930620#20 27930620#21 27930620#22 -28008218#20 -28008218#19 -28008218#18 -28008218#14 -28008218#10 -28008218#9 -28008218#6 -28008218#2 -28008218#1 -4721530#10 -4721530#8 -4721530#7 -4721530#5 -4721530#4 -4721530#2 -4721530#1 -4721530#0 -660547380#2 -660547380#1 -27681444#4 -79824264#0"/>
    </vehicle>
    <vehicle id="veh34" type="veh_passenger" depart="57.18" departLane="best">
        <route edges="783634#2 1067005198#0 1006432263#0 27681443#1 1067005206#0 1067005206#1 1001045463#0 1001045462#1 156465747#0 156465747#1 -1250952440#1 -1250952440#0 1290645109#1 1290645110#1 1290645111 1069076529#1 1069076529#2 1069076529#3 1069076529#4 -4422126#3 -4422126#2 -4422126#1 -4422126#0 -4516374#7 -4516374#6 -4516374#5 -4516374#4 -4516374#3 -4516374#2 -4516374#1 -4516374#0 555566857 628628134 1005337074#1 1005337074#2 613782963 1001067102#0 561680353 1035353261#0"/>
    </vehicle>
    <vehicle id="veh35" type="veh_passenger" depart="58.87" departLane="best">
        <route edges="4721529#2 86326107 4575267#0 4575267#1 4575267#2 1006432267#0 1006432267#1 27681443#1 1067005206#0 1067005206#1 1001045463#0 1001045462#1 156465747#0 156465747#1 -1250952440#1 -1250952440#0 1290645109#1 1290645110#1 1290645111 1069076529#1 1069076529#2 1069076529#3 1069076529#4 -4422126#3 -4422126#2 -4422126#1 -4422126#0 -4516374#7 -4516374#6 -4516374#5 -4516374#4 4516372#0 4516372#1 4516372#3 4516372#4 4516372#5 4516372#6 4516372#7"/>
    </vehicle>
    <vehicle id="veh37" type="veh_passenger" depart="62.23" departLane="best">
        <route edges="-175290823#2 -175291411#2 -175291411#0 -4525210#6 -4525210#4 -4525210#1 -4525210#0 4525228#2 4525228#3 4525228#4 -187325485#5 -187325485#4 -187325485#3 -187325485#2 -187325485#1 -187325485#0 -1006421041 -1006421040#2 -1006421040#0 -254846268 -1006421042 -1279205442#0 -1279205443#2 -1279205443#0 -1241211927#4 -1241211927#3 -1241211927#1 -1241211927#0 -117960883#3 -117960883#2 -117960883#0 27681443#1 1067005206#0 1067005206#1 1001045463#0 1001045462#1 156465747#0 156465747#1 -1250952440#1 -1250952440#0 -693555192#1 -693555192#0 693555191#1 693555191#4 693555191#5"/>
    </vehicle>
    <vehicle id="veh38" type="veh_passenger" depart="63.91" departLane="best">
        <route edges="-175290825 -175290823#2 -175291411#2 -175291411#0 -4525210#6 -4525210#4 -4525210#1 -4525210#0 4525228#2 4525228#3 4525228#4 -187325485#5 -187325485#4 -187325485#3 -187325485#2 -187325485#1 -187325485#0 -1006421041 -1006421040#2 -1006421040#0 -254846268 -1006421042 -1279205442#0 -1279205443#2 -1279205443#0 1006428686#1 660547380#0 660547380#1 660547380#2 4721530#0 4721530#1 4721530#2 4721530#4 4721530#5 4721530#7 4721530#8 4721530#10 28008218#1 28008218#2 28008218#6 28008218#9 28008218#10 28008218#14 28008218#18 28008218#19 28008218#20 28008218#22 28008220#1 28008220#2 28008220#3 28008220#5 1284150117#0"/>
    </vehicle>
    <vehicle id="veh39" type="veh_passenger" depart="65.59" departLane="best">
        <route edges="27681444#3 27681444#4 660547380#1 660547380#2 4721530#0 4721530#1 4721530#2 4721530#4 4721530#5 4721530#7 4721530#8 4721530#10 4721530#12 4721530#13 4721530#14 4721530#15 4721530#16 1278441846#0 171629747#0 171629747#1 1001179064#2 1001179065 930978#0 613788729 27929143#1 27929275#1 27929275#2 27929275#3 27929275#4 27929275#5"/>
    </vehicle>
    <vehicle id="veh40" type="veh_passenger" depart="67.28" departLane="best">
        <route edges="-4721530#1 -4721530#0 -660547380#2 -660547380#1 -660547380#0 1128395116 1006428687#0 -1241211927#4 -1241211927#3 -1241211927#1 -1241211927#0 -117960883#3 -117960883#2 -117960883#0 27681443#1 1067005206#0 1067005206#1 1001045463#0 1001045462#1"/>
    </vehicle>
    <vehicle id="veh41" type="veh_passenger" depart="68.96" departLane="best">
        <route edges="-1290645110#0 1250952440#0 1250952440#1 191973555#0 191973555#1 1001045461#0 783634#0 783634#1 783634#2 1067005198#0 1006432263#0 -1006432267#1 -1006432267#0 -4575267#3 -4575267#1 -4575267#0 1241211961#0 1241211961#1 27683075#3 27683075#4 27683075#6 27683075#7 27683075#8 27683075#9 -189540210#1 79707628#1 79707628#2 79707628#3 79708053#1 79708053#5"/>
    </vehicle>
    <vehicle id="veh42" type="veh_passenger" depart="70.64" departLane="best">
        <route edges="987276833#6 987276833#7 987276833#8 987276833#9 987276834#1 987276834#2 987276834#3 987276834#7 987276834#8 27683089#8 27683089#9 27683089#10 27683089#11 27683089#16 27683089#17 27683089#20 27683089#21 27683089#22 27683089#24 27683089#25 27683089#27 27683089#28 27683089#29 4721529#0 4721529#1 4721529#2 86326107 4575267#0 4575267#1 4575267#2 1006432267#0 1006432267#1 27681443#1 1067005206#0 1067005206#1 1001045463#0 1001045462#1 156465747#0 156465747#1 -1250952440#1 -1250952440#0 -4810591#1 -4469144#11 -4469144#9 -4469144#8 -4469144#7 -4469144#6 4810577#2 4810577#3 4810577#4 -4810580#4 -4810580#3 -4810580#2 -4810580#1 -4810576#7 -4810576#5 -4810576#3 -4810576#1 -1229465245#0 1286571609#2"/>
    </vehicle>
    <vehicle id="veh43" type="veh_passenger" depart="72.32" departLane="best">
        <route edges="83299925#2 -254846268 -1006421042 -1279205442#0 -1279205443#2 -1279205443#0 -1241211927#4 -1241211927#3 -1241211927#1 -1241211927#0 -117960883#3 -117960883#2 -117960883#0 27681443#1 1067005206#0 1067005206#1 1001045463#0 1001045462#1 156465747#0 156465747#1 -1250952440#1 -1250952440#0 1290645109#1 1290645110#1 1290645111 1069076529#1 1069076529#2 1069076529#3 1069076529#4 -4422126#3 -4422126#2 -4422126#1 -4422126#0 -4516374#7 -4516374#6 -4516374#5 -4516374#4 -4516374#3 -4516374#2 -4516374#1 -4516374#0 555566857 628628134 1005337074#1 1005337074#2 613782963 1001067102#0 561680353 4251234#0 4251234#1 4251234#2 818393761 818393760 23979306 555527550#0"/>
    </vehicle>
    <vehicle id="veh44" type="veh_passenger" depart="74.00" departLane="best">
        <route edges="1006440424#0 1006440424#1 1006440424#2 1006421035 545451602#0 545451602#1 545451602#2 1262942311 83299925#0 83299925#2 -254846268 -1006421042 -1279205442#0 -1279205443#2 -1279205443#0 -1241211927#4 -1241211927#3 -1241211927#1 -1241211927#0 -117960883#3 -117960883#2 -117960883#0 27681443#1 1067005206#0 1067005206#1 1001045463#0 1001045462#1 156465747#0 156465747#1 -1250952440#1 -1250952440#0 1290645109#1 1290645110#1 1290645111 1069076529#1 1069076529#2 1069076529#3 1069076529#4 -4422126#3 -4422126#2 -4422126#1 -4422126#0 -4516374#7 -4516374#6 -4516374#5 -4516374#4 -4516374#3 -4516374#2 -4516374#1 -4516374#0 555566857 628628134 1005337074#1 1005337074#2 613782963 1001067102#0 561680353 4251234#0 4251234#1"/>
    </vehicle>
    <vehicle id="veh45" type="veh_passenger" depart="75.68" departLane="best">
        <route edges="28008179#1 -79710862#1 -28008182#14 -28008182#13 -28008182#11 -28008182#10 -28008182#9 -28008182#7 -28008182#5 -28008182#4 -28008182#3 -28008182#2 -28008182#1 -27930596#6 -27930596#3 -27930596#2 -27930596#1 86326091#2 86326091#3 86326091#4 86326091#5 86326091#6 86326091#7 86326091#8 86326091#9 86326091#10 86326091#11 86326091#14 613788731 1001179064#0 1001179064#1 1001179064#2 1001179065 930978#0 930978#1 930978#2 154565321 -1290072194#7 -1290072194#6 -1290072194#5"/>
    </vehicle>
    <vehicle id="veh46" type="veh_passenger" depart="77.37" departLane="best">
        <route edges="4721530#12 4721530#13 4721530#14 4721530#15 4721530#16 1278441846#0 171629747#0 171629747#1 1001179064#2 1001179065 930978#0 930978#1 930978#2 1001406920 1003656164 613788732 -86326091#15 -86326091#11 -86326091#10 -86326091#9 -86326091#8 -86326091#7 -86326091#6 -86326091#5 -86326091#4 -86326091#3 -86326091#2 27930596#1"/>
    </vehicle>
    <vehicle id="veh47" type="veh_passenger" depart="79.05" departLane="best">
        <route edges="-27683075#15 -27683075#13 -27683075#12 -27683075#9 -27683075#8 -27683075#7 -27683075#6 -27683075#4 -27683075#3 -86326093#0 -1241211961#0 4575267#0 4575267#1 4575267#2 1006432267#0 1006432267#1 27681443#1 1067005206#0 1067005206#1 1001045463#0 1001043598#1 1001048839#2 1001048840#1 1001048840#2 1001048842#1 1001048841#3 1001048841#4 165420760#1 1002821859#0"/>
    </vehicle>
    <vehicle id="veh48" type="veh_passenger" depart="80.73" departLane="best">
        <route edges="1006428687#0 -1241211927#4 -1241211927#3 -1241211927#1 -1241211927#0 -117960883#3 -117960883#2 -117960883#0 27681443#1 1067005206#0 1067005206#1 1001045463#0 1001045462#1 156465747#0 156465747#1 -1250952440#1 -1250952440#0 -693555192#1 -693555192#0 -156465749#2 -156465749#1 -4302843#5 -4302843#3 -4302843#2 -4302843#0 4375293 1035356562 4524775#0 4524775#5 4524775#7 4524775#8 4524775#9 876658459#0 808536204#0 808536205#2 876658456#0 876658456#1 876658456#2 876658456#3 808525248#0 808525248#3"/>
    </vehicle>
    <vehicle id="veh51" type="veh_passenger" depart="85.78" departLane="best">
        <route edges="780336#6 780336#7 -1006421041 -1006421040#2 -1006421040#0 -254846268 -1006421042 -1279205442#0 -1279205443#2 -1279205443#0 -1241211927#4 -1241211927#3 -1241211927#1 -1241211927#0 -117960883#3 -117960883#2 -117960883#0 27681443#1 1067005206#0 1067005206#1 1001045463#0 1001045462#1 156465747#0 156465747#1 -1250952440#1 -1250952440#0 1290645109#1 1290645110#1 1290645111 1069076529#1 1069076529#2 1069076529#3 1069076529#4 -4422126#3 -4422126#2 -4422126#1 -4422126#0 -4516374#7 -4516374#6 -4516374#5 -4516374#4 -4516374#3 -4516374#2 -4516374#1 -4516374#0 555566857 628628134 1005337074#1 1005337074#2 613782963 1001067102#0 1001067102#1 1001067102#2 1001067102#3 1005337072 555566898#3 555566891#0 555566891#1 555566891#2 555566891#3"/>
    </vehicle>
    <vehicle id="veh52" type="veh_passenger" depart="87.46" departLane="best">
        <route edges="-4810577#3 -4810577#2 4469144#6 4469144#7 4469144#8 4469144#9 4469144#11 4810591#1 1250952440#0 1250952440#1 191973555#0 191973555#1 1001045461#0 783634#0 783634#1 783634#2 1067005198#0 1006432263#0 117960883#0 117960883#1 117960883#3 1241211927#0 1241211927#1 1241211927#2 1241211927#4 1006428686#1 660547380#0 660547380#1 660547380#2 -4741125#19 -4741125#18 27930285#0 27930285#1 27930285#3 27930285#4 27930286#1 27930286#2 27930286#4 27930286#6 27930286#7 27930286#8"/>
    </vehicle>
    <vehicle id="veh53" type="veh_passenger" depart="89.14" departLane="best">
        <route edges="-27683075#6 -27683075#4 -27683075#3 -86326093#0 -1241211961#0 4575267#0 4575267#1 4575267#2 1006432267#0 1006432267#1 117960883#0 117960883#1 117960883#3 1241211927#0 1241211927#1 1241211927#2 1241211927#4 1279205443#0 1279205443#1 1279205442#0 1279205442#1 83299924#1 83299924#3 83299915 -545451602#2 -545451602#1 -545451602#0 -1006421035 -1006440424#2 -1006440424#1 -1006440424#0 -28008177#0 -27930596#11 -27930596#10 -27930596#9"/>
    </vehicle>
    <vehicle id="veh55" type="veh_passenger" depart="92.50" departLane="best">
        <route edges="-1001048839#1 1001045462#1 156465747#0 156465747#1 -1250952440#1 -1250952440#0 -4810591#1 1251326603#1 4810592#1 4810584#13 4810584#15 4810584#17 -4810629#4 -4810629#3 -4810629#2 -4810629#1"/>
    </vehicle>
    <vehicle id="veh56" type="veh_passenger" depart="94.19" departLane="best">