<?xml version="1.0" encoding="UTF-8"?>

<!-- generated on 2025-02-21 16:35:04.191557 by randomTrips.py v1_21_0+1021-4606c0d7274
<configuration>
    <net-file value="osm.net.xml.gz"/>
    <output-trip-file value="osm.medium_traffic.passenger.trips.xml"/>
    <route-file value="osm.medium_traffic.passenger.rou.xml"/>
    <prefix value="veh"/>
    <trip-attributes value="departLane=&quot;best&quot;"/>
    <fringe-start-attributes value="departSpeed=&quot;max&quot;"/>
    <vehicle-class value="passenger"/>
    <lanes value="True"/>
    <fringe-factor value="4"/>
    <allow-fringe.min-length value="1000.0"/>
    <via-edge-types value="highway.motorway,highway.motorway_link,highway.trunk_link,highway.primary_link,highway.secondary_link,highway.tertiary_link"/>
    <min-distance value="300.0"/>
    <min-distance.fringe value="10.0"/>
    <remove-loops value="True"/>
    <validate value="True"/>
    <insertion-density value="10.0"/>
</configuration>
-->

<!-- generated on 2025-02-21 16:35:04 by Eclipse SUMO duarouter Version v1_21_0+1021-4606c0d7274
<duarouterConfiguration xmlns:xsi="http://www.w3.org/2001/XMLSchema-instance" xsi:noNamespaceSchemaLocation="http://sumo.dlr.de/xsd/duarouterConfiguration.xsd">

    <input>
        <net-file value="osm.net.xml.gz"/>
        <route-files value="osm.medium_traffic.passenger.trips.xml"/>
    </input>

    <output>
        <output-file value="osm.medium_traffic.passenger.rou.xml"/>
        <alternatives-output value="NUL"/>
    </output>

    <processing>
        <remove-loops value="true"/>
    </processing>

    <time>
        <begin value="0.0"/>
        <end value="3600.0"/>
    </time>

    <report>
        <no-warnings value="true"/>
        <ignore-errors value="true"/>
        <no-step-log value="true"/>
    </report>

</duarouterConfiguration>
-->

<routes xmlns:xsi="http://www.w3.org/2001/XMLSchema-instance" xsi:noNamespaceSchemaLocation="http://sumo.dlr.de/xsd/routes_file.xsd">
    <vType id="veh_passenger" vClass="passenger"/>
    <vehicle id="veh0" type="veh_passenger" depart="0.00" departLane="best">
        <route edges="27930285#15 27930285#17 27930285#18 -27930287#4 -27930287#2 -27930287#1 4741125#4 4741125#5 4741125#6 4741125#7 4741125#8 4741125#9 4741125#10 4741125#11 1264236125#1 -27930621#10 -27930621#9 -27930621#6 -27930621#1 -702738549#16 -702738549#15 -702738549#14 -702738549#12 -702738549#11 -702738549#7 -702738549#6 -702738549#5 -702738549#4 987276829#1 987276829#3 79707626#4 987276828#0 987276828#1 1263697477#1 27683089#9 -1204821212#13 -1204821212#12 -1204821212#11 -1204821212#9 -1204821212#7 -1204821212#6 -1204821212#3 -1204821212#2 79707628#1 79707628#2 79707628#3 79707628#6 79707628#7 79707628#9 79707628#11 79707628#13 79707628#15 79707628#16 1080366137#1"/>
    </vehicle>
    <vehicle id="veh1" type="veh_passenger" depart="6.73" departLane="best">
        <route edges="4302843#4 1290645106#1 156465749#2 693555192#0 693555192#1 1250952440#0 1250952440#1 191973555#0 191973555#1 1001045461#0 783634#0 783634#1 783634#2 1067005198#0 1006432263#0 117960883#0 117960883#1 117960883#3 1241211927#0 1241211927#1 1241211927#2 1241211927#4 1006428686#1 660547380#0 660547380#1 660547380#2 4721530#0 4721530#1 4721530#2 4721530#4 4721530#5 4721530#7 4721530#8 4721530#10 4721530#12 4721530#13 4721530#14 4721530#15 4721530#16 1278441846#0 171629747#0 171629747#1 1001179064#2 1001179065 930978#0 930978#1 930978#2 1001406920 1003656164 613788732 -86326091#15 -86326091#11 -86326091#10 28008167#1"/>
    </vehicle>
    <vehicle id="veh3" type="veh_passenger" depart="20.18" departLane="best">
        <route edges="-987276833#17 -987276833#16 -987276833#15 987276834#1 987276834#2 987276834#3 987276834#7 987276834#8 27683089#8 27683089#9 27683089#10 27683089#11 27683089#16 27683089#17 27683089#20 27683089#21 27683089#22 27683089#24 27683089#25 27683089#27 27683089#28 27683089#29 4721529#0 4721529#1 4721529#2 86326107 4575267#0 4575267#1 4575267#2 1006432267#0 1006432267#1 27681443#1 1067005206#0 1067005206#1 1001045463#0 1001045462#1 156465747#0 156465747#1 -1250952440#1 -1250952440#0 1290645109#1 1290645110#1 1290645111 1069076529#1 1069076529#2 1069076529#3 1069076529#4 -4422126#3 -4422126#2 -4422126#1 -4422126#0 -4516374#7 -4516374#6 -4516374#5 -4516374#4 -4516374#3 -4516374#2 -4516374#1 -4516374#0 555566857 628628134 1005337074#1 1005337074#2 613782963 1001067102#0 1001067102#1 1001067102#2 1001067102#3 1005337072 1005337073#5 165420765 172545612#0 172545612#1 -11985681#1"/>
    </vehicle>
    <vehicle id="veh4" type="veh_passenger" depart="26.91" departLane="best">
        <route edges="-28156123#0 -28008218#22 -28008218#20 -28008218#19 -28008218#18 -28008218#14 -28008218#10 -28008218#9 -28008218#6 -28008218#2 -28008218#1 -4721530#10 -4721530#8 -4721530#7 -4721530#5 -4721530#4 -4721530#2 -4721530#1 -4721530#0 -660547380#2 -660547380#1 -660547380#0 1128395116 1006428687#0 -1241211927#4 -1241211927#3"/>
    </vehicle>
    <vehicle id="veh5" type="veh_passenger" depart="33.64" departLane="best">
        <route edges="117960883#0 117960883#1 117960883#3 1241211927#0 1241211927#1 1241211927#2 1241211927#4 1279205443#0 1279205443#1 1279205442#0 1279205442#1 83299924#1 83299924#3 83299915 -545451602#2 -545451602#1 -545451602#0 -1006421035 -1006440424#2 -1006440424#1 -1006440424#0 -28008177#0 27930596#12 27930596#13 -28008215#1 -28008215#0"/>
    </vehicle>
    <vehicle id="veh6" type="veh_passenger" depart="40.37" departLane="best">
        <route edges="-27930596#13 -27930596#12 28008177#0 1006440424#0 1006440424#1 1006440424#2 1006421035 545451602#0 545451602#1 545451602#2 1262942311 83299925#0 83299925#2 -254846268 -1006421042 -1279205442#0 -1279205443#2 -1279205443#0 -1241211927#4 -1241211927#3 -1241211927#1 -1241211927#0 -117960883#3 -117960883#2 -117960883#0 27681443#1 1067005206#0 1067005206#1 1001045463#0 1001045462#1 156465747#0 156465747#1 -1250952440#1 -1250952440#0 -4810591#1 165420771#0 165420771#1 165420771#2 165420771#3 172068741#0 -79819327#0 1336569593#1 1336569593#2"/>
    </vehicle>
    <vehicle id="veh7" type="veh_passenger" depart="47.09" departLane="best">
        <route edges="-28156123#12 -28156123#11 -28156123#10 -28156123#6 -28156123#5 -28156123#1 -28156123#0 -28008218#22 -28008218#20 -28008218#19 -28008218#18 -28008218#14 -28008218#10 -28008218#9 -28008218#6 -28008218#2 -28008218#1 -4721530#10 -4721530#8 -4721530#7 -4721530#5 -4721530#4 -4721530#2 -4721530#1 -4721530#0 -660547380#2 -660547380#1 -660547380#0 1128395116 1006428687#0 1279205443#0 1279205443#1 1279205442#0 1279205442#1 1006421038#0 1006421040#0 1006421040#1 1006421041 187325485#0 187325485#1 187325485#2 187325485#3 187325485#4 187325485#5 187325485#6"/>
    </vehicle>
    <vehicle id="veh9" type="veh_passenger" depart="60.55" departLane="best">
        <route edges="-555566891#3 -555566891#2 -555566891#1 -555566891#0 555566893#1 1006536035#4 628628140#0 628628140#2 628628140#3 1035353261#0 1035353261#1 1001067100#0 1001067100#1 1001067100#2 555566859 4516374#0 4516374#1 4516374#2 4516374#3 4516374#4 4516374#5 4516374#6 4516374#7 4422126#0 4422126#1 4422126#2 4422126#3 -1069076529#4 -1069076529#3 -1069076529#2 -1069076529#1 -1069076529#0 -1069076530 -1290645110#0 1250952440#0 1250952440#1 191973555#0 191973555#1 1001045461#0 783634#0 783634#1 783634#2 1067005198#0 1006432263#0 117960883#0 117960883#1 117960883#3 1241211927#0 1241211927#1 1241211927#2 1241211927#4 1279205443#0 1279205443#1 1279205442#0 1279205442#1 83299924#1 83299924#3 83299915 -545451602#2 -545451602#1 -545451602#0 -1006421035 -1006440424#2 -1006440424#1 -1006440424#0 -28008177#0 -27930596#11 -27930596#10 -27930596#9"/>
    </vehicle>
    <vehicle id="veh10" type="veh_passenger" depart="67.28" departLane="best">
        <route edges="-175291411#0 -4525210#6 -4525210#4 -4525210#1 -4525210#0 4525228#2 4525228#3 4525228#4 -187325485#5 -187325485#4 -187325485#3"/>
    </vehicle>
    <vehicle id="veh11" type="veh_passenger" depart="74.00" departLane="best">
        <route edges="-4810589#3 -4810589#2 -4810589#1 4469144#11 4810591#1 1250952440#0 1250952440#1 191973555#0 191973555#1 1001045461#0 783634#0 783634#1 783634#2 1067005198#0 1006432263#0 117960883#0 117960883#1 117960883#3 1241211927#0 1241211927#1 -79824262#1 -79824262#0 27681444#2"/>
    </vehicle>
    <vehicle id="veh13" type="veh_passenger" depart="87.46" departLane="best">
        <route edges="-79707615#9 -79707615#8 -79707615#6 -79707615#5 -79707615#3 -79707615#2 27683089#20 27683089#21 27683089#22 27683089#24 27683089#25 27683089#27 27683089#28 27683089#29 4721529#0 4721529#1 4721529#2 86326107 4575267#0 4575267#1 4575267#2 1006432267#0 1006432267#1 -154979768#2 -154979768#0 154979769#2"/>
    </vehicle>
    <vehicle id="veh14" type="veh_passenger" depart="94.19" departLane="best">
        <route edges="-4810577#5 -4810577#4 -4810577#3 -4810577#2 4469144#6 4469144#7 4469144#8 4469144#9 4469144#11 4810591#1 1250952440#0 1250952440#1 191973555#0 191973555#1 1001045461#0 783634#0 783634#1 783634#2 1067005198#0 1006432263#0 117960883#0 117960883#1 117960883#3 1241211927#0 1241211927#1 1241211927#2 1241211927#4 1006428686#1 660547380#0 660547380#1 660547380#2 27683092#0 27683092#1 27683092#2 27683092#3"/>
    </vehicle>
    <vehicle id="veh15" type="veh_passenger" depart="100.91" departLane="best">
        <route edges="5008224#1 5008224#2 5008224#3 1074295407#1 628628148 1074301970 4353083 4353079#0 4353079#1 4353079#2 4353079#3 -196776973#2 -196776973#1 -223982979#2 -223982979#1 172068741#0"/>
    </vehicle>
    <vehicle id="veh16" type="veh_passenger" depart="107.64" departLane="best">
        <route edges="28008219#13 28008219#16 28008219#19 28008219#20 28008219#21 28008219#22 -27930621#12 -27930621#10 -27930621#9 -27930621#6 -27930621#1 -4721530#8 -4721530#7 -4721530#5 -4721530#4 -4721530#2 -4721530#1 -4721530#0 -660547380#2 -660547380#1 -660547380#0 1128395116 1006428687#0 1279205443#0"/>
    </vehicle>
    <vehicle id="veh19" type="veh_passenger" depart="127.82" departLane="best">
        <route edges="-196776973#1 -4810584#21 -4810584#20 -4810584#17 -4810584#15 -4810584#13 -1251326601#0 -4810592#0 4810591#1 1250952440#0 1250952440#1 191973555#0 191973555#1 1001045461#0 783634#0 783634#1 783634#2 1067005198#0 1006432263#0 117960883#0 117960883#1 117960883#3 1241211927#0 1241211927#1 1241211927#2 1241211927#4 1279205443#0 1279205443#1 1279205442#0 1279205442#1 83299924#1 83299924#3 83299915 -545451602#2 -545451602#1 -545451602#0 -1006421035 -1006440424#2 -1006440424#1 -1006440424#0 -1006440425#1 -1006440425#0 -1006440426#0 -1006440427#0 -1006440428#1 -4741115#5 -4741115#3"/>
    </vehicle>
    <vehicle id="veh20" type="veh_passenger" depart="134.55" departLane="best">
        <route edges="-27929275#8 -27929275#7 -27929275#6 -27929275#5 -27929275#4 -27929275#3 -27929275#2 -27929275#1 -27929143#1 613788730 930978#2 1001406920 1003656164 1003661750 1001179064#0 171629750 -1278441846#0 -4721530#16 -4721530#15 -4721530#14 -4721530#13 -4721530#12 -4721530#10 -702738549#16 -702738549#15 -702738549#14 -702738549#12 -702738549#11 -702738549#7 -702738549#6"/>
    </vehicle>
    <vehicle id="veh21" type="veh_passenger" depart="141.28" departLane="best">
        <route edges="780214#6 780214#7 -1279205442#0 -1279205443#2 -1279205443#0 1006428686#1 660547380#0 660547380#1 660547380#2 4721530#0 4721530#1 4721530#2 4721530#4 4721530#5 4721530#7 4721530#8 27930621#1 27930621#6 27930621#9 27930621#10 27930621#12 -28008219#22 -28008219#21 -28008219#20 -28008219#19 -28008219#16 -28008219#13 -28008219#12 -28008219#10 -28008219#9"/>
    </vehicle>
    <vehicle id="veh23" type="veh_passenger" depart="154.73" departLane="best">
        <route edges="27930287#4 -27930285#18 -27930285#17 -27930285#15 -27930285#13 -27930285#11 -27930285#10 -27930285#9 -27930285#8 -27930285#7 -27930285#4 -27930285#3 -27930285#1 -27930285#0 4741125#18 4741125#19 4721530#0 4721530#1 4721530#2 4721530#4 4721530#5 4721530#7 4721530#8 4721530#10 4721530#12 -167121171#14 -167121171#13 -167121171#11 -167121171#10 27683089#1"/>
    </vehicle>
    <vehicle id="veh24" type="veh_passenger" depart="161.46" departLane="best">
        <route edges="-27930621#43 -27930621#42 -27930621#41 -27930621#39 -27930621#38 -27930621#36 -27930621#35 -27930621#31 -27930621#30 -27930621#29 -27930621#26 -27930621#25 -27930621#18 -27930621#17 -27930621#15 -27930621#14 -27930621#13 -27930621#12 -27930621#10 -27930621#9 -27930621#6 -27930621#1 -4721530#8 -4721530#7 -4721530#5 -4721530#4 -4721530#2 -4721530#1 -4721530#0 -660547380#2 -660547380#1 -660547380#0 1128395116 1006428687#0 -1241211927#4 -1241211927#3 -1241211927#1 -1241211927#0 -117960883#3 -117960883#2 -117960883#0 27681443#1 1067005206#0 1067005206#1 1001045463#0 1001045462#1 156465747#0 156465747#1 -1250952440#1 -1250952440#0 -693555192#1 -693555192#0 -156465749#2 -156465749#1 -4302843#5 -4302843#3"/>
    </vehicle>
    <vehicle id="veh25" type="veh_passenger" depart="168.19" departLane="best">
        <route edges="4759427#0 1006536034 1006536035#4 628628140#0 628628140#2 628628140#3 1035353261#0 1035353261#1 1001067100#0 1001067100#1 1001067100#2 555566859 4516374#0 4516374#1 4516374#2 4516374#3 4516374#4 4516374#5 4516374#6 4516374#7 4422126#0 4422126#1 4422126#2 4422126#3 -1069076529#4 -1069076529#3 -1069076529#2 -1069076529#1 -1069076529#0 -1069076530 -1290645110#0 1250952440#0 1250952440#1 191973555#0 191973555#1 1001045461#0 783634#0 783634#1 783634#2 1067005198#0 1006432263#0 117960883#0 117960883#1 117960883#3 1241211927#0 1241211927#1 1241211927#2 1241211927#4 1279205443#0 1279205443#1 1279205442#0 1279205442#1 83299924#1 83299924#3 83299915 -545451602#2 -545451602#1 -545451602#0 -1006421035 -1006440424#2 -1006440424#1 -1006440424#0 -28008177#0 -27930596#11 -27930596#10 -27930596#9 -27930596#7 28008182#1 28008182#2 28008182#3"/>
    </vehicle>
    <vehicle id="veh26" type="veh_passenger" depart="174.92" departLane="best">
        <route edges="-4810584#20 -4810584#17 -4810584#15 -4810584#13 -1251326601#0 -4810592#0 4810591#1 1250952440#0 1250952440#1 191973555#0 191973555#1 1001045461#0 783634#0 783634#1 783634#2 1067005198#0 1006432263#0 -1006432267#1 -1006432267#0 -4575267#3 -4575267#1"/>
    </vehicle>
    <vehicle id="veh27" type="veh_passenger" depart="181.64" departLane="best">
        <route edges="-4316771#4 -4316771#3 -4316771#2 -4316771#0 -1069076529#4 -1069076529#3 -1069076529#2 -1069076529#1 -1069076529#0 -1069076530 -1290645110#0 1250952440#0 1250952440#1 191973555#0 191973555#1 1001045461#0 783634#0 783634#1 783634#2 1067005198#0 1006432263#0 -1006432267#1 -1006432267#0 -4575267#3 -4575267#1 -4575267#0 -86326107 -4721529#2 -4721529#1 -4721529#0 -27683089#29 -27683089#28 -27683089#27 -27683089#25 -27683089#24 -27683089#22 -27683089#21 -27683089#20 -27683089#17 -27683089#16 -27683089#11 -27683089#10 -1204821212#13 -1204821212#12 -1204821212#11 -1204821212#9 -1204821212#7 -1204821212#6"/>
    </vehicle>
    <vehicle id="veh29" type="veh_passenger" depart="195.10" departLane="best">
        <route edges="-28008220#15 -28008220#14 -28008220#12 -28008220#11 -28008220#8 -28008220#7 -28008220#5 -28008220#3 -28008220#2 -28008220#1 -28008218#22 -28008218#20 -28008218#19 -28008218#18 -28008218#14 -28008218#10 -28008218#9 -28008218#6 -28008218#2 -28008218#1 -4721530#10 -4721530#8 -4721530#7 -4721530#5 -4721530#4 -4721530#2 -4721530#1 -4721530#0 -660547380#2 -660547380#1 -660547380#0 1128395116 1006428687#0 -1241211927#4 -1241211927#3 -1241211927#1 -1241211927#0 -117960883#3 -117960883#2 -117960883#0 27681443#1 1067005206#0 1067005206#1 1001045463#0 1001045462#1 156465747#0 156465747#1 -1250952440#1 -1250952440#0 -4810591#1 165420771#0 165420771#1 165420771#2 165420771#3 223982979#1 223982979#2 8056015#0 8056015#1"/>
    </vehicle>
    <vehicle id="veh30" type="veh_passenger" depart="201.83" departLane="best">
        <route edges="613788732 -86326091#15 79714512#1 79714512#2 -4721530#15 -4721530#14 -4721530#13 -4721530#12 -4721530#10 -4721530#8 -4721530#7 -4721530#5 -4721530#4 -4721530#2 -4721530#1 -4721530#0 -660547380#2 -660547380#1 -660547380#0 1128395116 1006428687#0 -1241211927#4 -1241211927#3 -1241211927#1 -1241211927#0 -117960883#3 -117960883#2 -117960883#0 27681443#1 1067005206#0 1067005206#1 1001045463#0 1001045462#1 156465747#0 156465747#1 -1250952440#1 -1250952440#0 -4810591#1 -4469144#11 -4469144#9 -4469144#8 -4469144#7 -4469144#6 4810577#2 4810577#3 4810577#4 4810577#5 4810577#6 -4810582#4 -4810582#3"/>
    </vehicle>
    <vehicle id="veh31" type="veh_passenger" depart="208.55" departLane="best">
        <route edges="-27930620#1 -4721530#12 -4721530#10 -4721530#8 -4721530#7 -4721530#5 -4721530#4 -4721530#2 -4721530#1 -4721530#0 -660547380#2 -660547380#1 -660547380#0 1128395116 1006428687#0 -1241211927#4 -1241211927#3 -1241211927#1 -1241211927#0 -117960883#3 -117960883#2 -117960883#0 27681443#1 1067005206#0 1067005206#1 1001045463#0 1001045462#1 156465747#0 156465747#1 -1250952440#1 -1250952440#0 -4810591#1 165420771#0 165420771#1 165420771#2 165420771#3 172068741#0 -79819327#0"/>
    </vehicle>
    <vehicle id="veh32" type="veh_passenger" depart="215.28" departLane="best">
        <route edges="79707609#2 79707609#3 4741125#4 4741125#5 4741125#6 4741125#7 4741125#8 4741125#9 4741125#10 4741125#11 4741125#12 4741125#13 4741125#15 4741125#18 4741125#19 -660547380#2 -660547380#1 -660547380#0 1128395116 1006428687#0 -1241211927#4 -1241211927#3 -1241211927#1 -1241211927#0 -117960883#3 -117960883#2 -117960883#0 27681443#1"/>
    </vehicle>
    <vehicle id="veh34" type="veh_passenger" depart="228.74" departLane="best" departSpeed="max">
        <route edges="167121167 1276582182#0 1276582182#1 930978#0 930978#1 930978#2 1001406920 1003656164 1003661750 1001179064#0 171629750 -1278441846#0 -4721530#16 -4721530#15 -4721530#14 -4721530#13 -4721530#12 -4721530#10 -4721530#8 -4721530#7 -4721530#5 -4721530#4 -4721530#2 -4721530#1 -4721530#0 -660547380#2 -660547380#1 -660547380#0 1128395116 1006428687#0 -1241211927#4 -1241211927#3 -1241211927#1 -1241211927#0 -117960883#3 -117960883#2 -117960883#0 -1006432267#1 -1006432267#0 -4575267#3 -4575267#1 -4575267#0"/>
    </vehicle>
    <vehicle id="veh35" type="veh_passenger" depart="235.46" departLane="best">
        <route edges="175290823#0 175290823#1 -175291411#2 -175291411#0 -4525210#6 -4525210#4 -4525210#1 -4525210#0 4525228#2 4525228#3 4525228#4 -187325485#5 -187325485#4 -187325485#3 -187325485#2 -187325485#1 -187325485#0 -1006421041 -1006421040#2 -1006421040#0 -254846268 -1006421042 -1279205442#0 -1279205443#2 -1279205443#0 1006428686#1 660547380#0 660547380#1 660547380#2 4721530#0 4721530#1 4721530#2 4721530#4 4721530#5 4721530#7 4721530#8 -702738549#16 -702738549#15 -702738549#14 -702738549#12 -702738549#11"/>
    </vehicle>
    <vehicle id="veh36" type="veh_passenger" depart="242.19" departLane="best">
        <route edges="-79819868 -27930621#1 4721530#10 4721530#12 4721530#13 4721530#14 4721530#15 4721530#16 1278441846#0 171629747#0 171629747#1 1001179064#2 1001179065 930978#0 930978#1 930978#2 1001406920 1003656164 613788732 -86326091#15 -86326091#11 -86326091#10 -86326091#9 -86326091#8 -86326091#7 -86326091#6 -86326091#5 -86326091#4 -86326091#3 -86326091#2 -86326091#1 -86326091#0 -86326117#2 4741117#1 -28156119#0 -28156120#2"/>
    </vehicle>
    <vehicle id="veh37" type="veh_passenger" depart="248.92" departLane="best">
        <route edges="987276834#1 987276834#2 987276834#3 987276834#7 987276834#8 27683089#8 27683089#9 27683089#10 27683089#11 27683089#16 27683089#17 27683089#20 27683089#21 27683089#22 27683089#24 27683089#25 27683089#27 27683089#28 27683089#29 4721529#0 4721529#1 4721529#2 86326107 4575267#0 4575267#1 4575267#2 1006432267#0 1006432267#1 27681443#1 1067005206#0 1067005206#1 1001045463#0 1001045462#1 156465747#0 156465747#1 -1250952440#1 -1250952440#0 -4810591#1 -4469144#11 620887142#1 620887142#2 1255276395#1"/>
    </vehicle>
    <vehicle id="veh38" type="veh_passenger" depart="255.65" departLane="best">
        <route edges="-175289882#3 -175289882#2 -175289882#0 -4525210#4 -4525210#1 -4525210#0 4525228#2 4525228#3 4525228#4 -187325485#5 -187325485#4 -187325485#3 -187325485#2 -187325485#1 -187325485#0 -1006421041 -1006421040#2 -1006421040#0 -254846268 -1006421042 -1279205442#0 -1279205443#2"/>
    </vehicle>
    <vehicle id="veh39" type="veh_passenger" depart="262.37" departLane="best">
        <route edges="-254846268 -1006421042 -1279205442#0 -1279205443#2 -1279205443#0 1006428686#1 660547380#0 660547380#1 660547380#2 4721530#0 4721530#1 4721530#2 4721530#4 4721530#5 4721530#7 4721530#8 4721530#10 4721530#12 4721530#13 4721530#14 4721530#15 4721530#16 1278441846#0 171629747#0 171629747#1 1001179064#2 1001179065 930978#0 930978#1 930978#2 154565321 -1290072194#7 -1290072194#6 -1290072194#5 -1290072194#3 -1290072194#2 -1290072194#1 -1290072194#0 -27929216#5 -27929216#3 -27929216#2 -27929216#0 -27929270#4 -27929270#3 -27929270#2 -27929270#1 -27929270#0"/>
    </vehicle>
    <vehicle id="veh40" type="veh_passenger" depart="269.10" departLane="best">
        <route edges="987276833#7 987276833#8 987276833#9 987276834#1 987276834#2 987276834#3 987276834#7 987276834#8 27683089#8 -1263697477#1 -1263697477#0 -987276828#0 -79707626#4 -987276829#3 -987276829#1 702738549#4 702738549#5 702738549#6 702738549#7 702738549#11 702738549#12 702738549#14 702738549#15 702738549#16 27930621#1 27930621#6 27930621#9 27930621#10 27930621#12 27930621#13 27930621#14 27930621#15 27930621#17 27930621#18 1286214012#1 1286214012#2 1286214012#3 27930625#12 27930625#13 1286563759#0 1286563759#1 1286563759#2"/>
    </vehicle>
    <vehicle id="veh41" type="veh_passenger" depart="275.83" departLane="best">
        <route edges="86326091#1 86326091#2 86326091#3 86326091#4 86326091#5 86326091#6 86326091#7 86326091#8 86326091#9 86326091#10 86326091#11 79714512#1 79714512#2 -4721530#15 -4721530#14 -4721530#13 -4721530#12 -4721530#10 -4721530#8 -4721530#7 -4721530#5 -4721530#4 -4721530#2 -4721530#1 -4721530#0 -660547380#2 -660547380#1 -660547380#0 1128395116 1006428687#0 -1241211927#4 -1241211927#3 -1241211927#1 -1241211927#0 -117960883#3 -117960883#2 -117960883#0 27681443#1 1067005206#0 1067005206#1 1001045463#0 1001045462#1 156465747#0 156465747#1 -1250952440#1 -1250952440#0 1290645109#1 1290645110#1 1290645111 1069076529#1 1069076529#2 1069076529#3 1069076529#4 -4422126#3 -4422126#2 -4422126#1 -4422126#0 -4516374#7 -4516374#6 -4516374#5 -4516374#4 -4516374#3 -4516374#2 -4516374#1 -4516374#0 555566857 628628134 1005337074#1 1005337074#2 613782963 1001067102#0 561680353 4251234#0 4251234#1 4251234#2 818393761 818393760 23979306 555527550#0"/>
    </vehicle>
    <vehicle id="veh42" type="veh_passenger" depart="282.56" departLane="best">
        <route edges="1006432267#1 117960883#0 117960883#1 117960883#3 1241211927#0 1241211927#1 1241211927#2 1241211927#4 1006428686#1 660547380#0 660547380#1 660547380#2 4721530#0 4721530#1 4721530#2 4721530#4 4721530#5 4721530#7 4721530#8 4721530#10 28008218#1 28008218#2 28008218#6 28008218#9 28008218#10 28008218#14 28008218#18 28008218#19 28008218#20 28008218#22 28156123#0 28156123#1 28156123#5 28156123#6 28156123#10 28156123#11 28156123#12 28156123#14 28156123#15"/>
    </vehicle>
    <vehicle id="veh44" type="veh_passenger" depart="296.01" departLane="best">
        <route edges="-27681444#2 79824262#0 79824262#1 1241211927#2 1241211927#4 1279205443#0 1279205443#1 1279205442#0 1279205442#1 1006421038#0 1006421040#0 1006421040#1 1006421041 -780336#7 -780336#6 -780336#5 -780336#4 -780336#3 -780336#2 1001052089#2 1163538707#1 1163538707#2 1001052088#1"/>
    </vehicle>
    <vehicle id="veh45" type="veh_passenger" depart="302.74" departLane="best">
        <route edges="1005337074#2 613782963 1001067102#0 561680353 4251234#0 4251234#1 4251234#2 818393761 818393760 154830384#0 808572852 808525245#0 808525245#4 808536204#0 808536205#2 876658456#0 876658456#1 876658456#2 876658456#3 808525248#0 808525248#3 808525248#4"/>
    </vehicle>
    <vehicle id="veh46" type="veh_passenger" depart="309.47" departLane="best">
        <route edges="613788732 -86326091#15 79714512#1 79714512#2 -4721530#15 -4721530#14 -4721530#13 -4721530#12 -4721530#10 -4721530#8 -4721530#7 -4721530#5 -4721530#4 -4721530#2 -4721530#1 -4721530#0 -660547380#2 -660547380#1 -660547380#0 1128395116 1006428687#0 -1241211927#4 -1241211927#3 -1241211927#1 -1241211927#0 -117960883#3 -117960883#2 -117960883#0 -1006432267#1 -1006432267#0 -4575267#3 -4575267#1"/>
    </vehicle>
    <vehicle id="veh47" type="veh_passenger" depart="316.19" departLane="best" departSpeed="max">
        <route edges="121174586 1337729898 1076395104 4375291 4302843#0 4302843#2 4302843#3 4302843#4 1290645106#1 156465749#2 693555192#0 693555192#1 1250952440#0 1250952440#1 191973555#0 191973555#1 1001045461#0 783634#0 783634#1 783634#2 1067005198#0 1006432263#0 117960883#0 117960883#1 117960883#3 1241211927#0 1241211927#1 1241211927#2 1241211927#4 1006428686#1 660547380#0 660547380#1 660547380#2 4721530#0 4721530#1 4721530#2 4721530#4 4721530#5 4721530#7 4721530#8 27930621#1 27930621#6 27930621#9 27930621#10 27930621#12 27930621#13 27930621#14 27930621#15 27930621#17 27930621#18 1286214012#1 1286214012#2 1286214012#3 -27930625#10 -27930625#9"/>
    </vehicle>
    <vehicle id="veh48" type="veh_passenger" depart="322.92" departLane="best">
        <route edges="783634#2 1067005198#0 1006432263#0 27681443#1 1067005206#0 1067005206#1 1001045463#0 1001045462#1 156465747#0 156465747#1 -1250952440#1 -1250952440#0 1290645109#1 1290645110#1 1290645111 1069076529#1 1069076529#2 1069076529#3 1069076529#4 -4422126#3 -4422126#2 -4422126#1 -4422126#0 -4516374#7 -4516374#6 -4516374#5 -4516374#4 -4516374#3 -4516374#2 -4516374#1 -4516374#0 555566857 628628134 1005337074#1 1005337074#2 613782963 1001067102#0 1001067102#1 1001067102#2 1001067102#3 1005337072 555566893#4"/>
    </vehicle>
    <vehicle id="veh49" type="veh_passenger" depart="329.65" departLane="best">
        <route edges="4810576#3 4810576#5 4810576#7 4810580#1 4810580#2 4810580#3 4810580#4 -4810577#4 -4810577#3 -4810577#2 4469144#6 4469144#7 4469144#8 4469144#9 4469144#11 4810591#1 1250952440#0 1250952440#1 191973555#0 191973555#1 1001045461#0 783634#0 783634#1 783634#2 1067005198#0 1006432263#0 117960883#0 117960883#1 117960883#3 1241211927#0 1241211927#1 1241211927#2 1241211927#4 1006428686#1 660547380#0 660547380#1 660547380#2 -4741125#19 -4741125#18 27930285#0 27930285#1 27930285#3 27930285#4 27930285#7 27930285#8"/>
    </vehicle>
    <vehicle id="veh50" type="veh_passenger" depart="336.38" departLane="best">
        <route edges="-27683075#15 -27683075#13 -27683075#12 -27683075#9 -27683075#8 -27683075#7 -27683075#6 -27683075#4 -27683075#3 -86326093#0 -1241211961#0 4575267#0 4575267#1 4575267#2 1006432267#0 1006432267#1 117960883#0 117960883#1 117960883#3 1241211927#0 1241211927#1 1241211927#2 1241211927#4 1279205443#0 1279205443#1 1279205442#0 1279205442#1 83299924#1 83299924#3 83299915 -545451602#2 -545451602#1 -545451602#0 -1006421035 -1006440424#2 -1006440424#1 -1006440424#0 -1006440425#1 -1006440425#0 -1006440426#0 -1006440427#0 -1006440428#1 -4741115#5 -27930596#15 -27930596#14"/>
    </vehicle>
    <vehicle id="veh51" type="veh_passenger" depart="343.10" departLane="best">
        <route edges="-4516372#3 -4516372#1 -4516372#0 4516374#4 4516374#5 4516374#6 4516374#7 4422126#0 4422126#1 4422126#2 4422126#3 -1069076529#4 -1069076529#3 -1069076529#2 -1069076529#1 -1069076529#0 -1069076530 -1290645110#0 1250952440#0 1250952440#1 191973555#0 191973555#1 1001045461#0 783634#0 783634#1 783634#2 1067005198#0 1006432263#0 117960883#0 117960883#1 117960883#3 1241211927#0 1241211927#1 1241211927#2 1241211927#4 1006428686#1 660547380#0 660547380#1 660547380#2 4721530#0 4721530#1 4721530#2 4721530#4 4721530#5 4721530#7 4721530#8 4721530#10 4721530#12 4721530#13 4721530#14 4721530#15 4721530#16 1278441846#0 171629747#0 171629747#1 1001179064#2 1001179065 930978#0 930978#1 930978#2 154565321 -1290072194#7 -1290072194#6 -1290072194#5"/>
    </vehicle>
    <vehicle id="veh52" type="veh_passenger" depart="349.83" departLane="best">
        <route edges="-4525210#8 -4525210#7 -4525210#6 -4525210#4 -4525210#1 -4525210#0 -4525228#1 -4525228#0 1006440427#0 1006440427#1 1006440426#1 1006440425#1 1006440424#0 1006440424#1 1006440424#2 1006421035 545451602#0 545451602#1 545451602#2 1262942311 4741123 631036134#0 631036134#1 631036134#3 631036134#4 631036134#6 631036134#7 4741125#0 4741125#1 4741125#2 -79707609#3 27930625#2 27930625#3 27930625#7 27930625#9 27930625#10 27930625#12 27930625#13 1286563759#0 1286563759#1 1286563759#2 1286563759#6 -1286563769#0"/>
    </vehicle>
    <vehicle id="veh53" type="veh_passenger" depart="356.56" departLane="best">
        <route edges="-1001048839#1 1001045462#1 156465747#0 156465747#1 -1250952440#1 -1250952440#0 -4810591#1 1251326603#1 4810592#1 -4810584#10 -4810589#3"/>
    </vehicle>
    <vehicle id="veh54" type="veh_passenger" depart="363.29" departLane="best">
        <route edges="-1069076529#0 -1069076530 -1290645110#0 1250952440#0 1250952440#1 191973555#0 191973555#1 1001045461#0 783634#0 783634#1 783634#2 1067005198#0 1006432263#0 117960883#0 117960883#1 117960883#3 1241211927#0 1241211927#1 1241211927#2 1241211927#4 1279205443#0 1279205443#1 1279205442#0 1279205442#1 83299924#1 83299924#3 83299915 -545451602#2 -545451602#1 -545451602#0 -1006421035 -1006440424#2 -1006440424#1 -1006440424#0 -28008177#0 -27930596#11 -27930596#10 -27930596#9 28008179#1 79710862#2"/>
    </vehicle>
    <vehicle id="veh55" type="veh_passenger" depart="370.01" departLane="best">
        <route edges="628628140#0 628628140#2 628628140#3 1035353261#0 1035353261#1 1001067100#0 1001067100#1 1001067100#2 555566859 4516374#0 4516374#1 4516374#2 4810575#0 4810575#1 4810575#2 4810576#5 4810576#7 4810580#1 4810580#2 4810580#3 4810580#4 4810577#5 4810577#6 -4810582#4 -4810582#3 -4810582#2 -4810582#0"/>