<?xml version="1.0" encoding="UTF-8"?>

<!-- generated on 2025-02-21 16:34:54.987827 by randomTrips.py v1_21_0+1021-4606c0d7274
<configuration>
    <net-file value="osm.net.xml.gz"/>
    <output-trip-file value="osm.low_traffic.passenger.trips.xml"/>
    <route-file value="osm.low_traffic.passenger.rou.xml"/>
    <prefix value="veh"/>
    <trip-attributes value="departLane=&quot;best&quot;"/>
    <fringe-start-attributes value="departSpeed=&quot;max&quot;"/>
    <vehicle-class value="passenger"/>
    <lanes value="True"/>
    <fringe-factor value="2"/>
    <allow-fringe.min-length value="1000.0"/>
    <via-edge-types value="highway.motorway,highway.motorway_link,highway.trunk_link,highway.primary_link,highway.secondary_link,highway.tertiary_link"/>
    <min-distance value="300.0"/>
    <min-distance.fringe value="10.0"/>
    <remove-loops value="True"/>
    <validate value="True"/>
    <insertion-density value="5.0"/>
</configuration>
-->

<!-- generated on 2025-02-21 16:34:54 by Eclipse SUMO duarouter Version v1_21_0+1021-4606c0d7274
<duarouterConfiguration xmlns:xsi="http://www.w3.org/2001/XMLSchema-instance" xsi:noNamespaceSchemaLocation="http://sumo.dlr.de/xsd/duarouterConfiguration.xsd">

    <input>
        <net-file value="osm.net.xml.gz"/>
        <route-files value="osm.low_traffic.passenger.trips.xml"/>
    </input>

    <output>
        <output-file value="osm.low_traffic.passenger.trips.xml.tmp"/>
        <alternatives-output value="NUL"/>
        <write-trips value="true"/>
    </output>

    <processing>
        <remove-loops value="true"/>
    </processing>

    <time>
        <begin value="0.0"/>
        <end value="3600.0"/>
    </time>

    <report>
        <no-warnings value="true"/>
        <ignore-errors value="true"/>
        <no-step-log value="true"/>
    </report>

</duarouterConfiguration>
-->

<routes xmlns:xsi="http://www.w3.org/2001/XMLSchema-instance" xsi:noNamespaceSchemaLocation="http://sumo.dlr.de/xsd/routes_file.xsd">
    <vType id="veh_passenger" vClass="passenger"/>
    <vType id="emergency" vClass="emergency" color="white"/>
    <trip id="veh0" type="veh_passenger" depart="0.00" departLane="best" from="27930285#10" to="1080366137#1"/>
    <trip id="veh1" type="veh_passenger" depart="13.46" departLane="best" from="4302843#4" to="28006151#0"/>
    <trip id="veh2" type="veh_passenger" depart="26.91" departLane="best" from="-671967031#9" to="170130108#2"/>
    <trip id="veh3" type="veh_passenger" depart="40.37" departLane="best" from="86326117#0" to="-11985681#1"/>
    <trip id="veh4" type="veh_passenger" depart="53.82" departLane="best" from="-28008222#1" to="-1204821212#9"/>
    <trip id="veh5" type="veh_passenger" depart="67.28" departLane="best" from="-1163538707#2" to="-28008212#1"/>
    <trip id="veh6" type="veh_passenger" depart="80.73" departLane="best" from="27930596#1" to="1301088630"/>
    <trip id="veh7" type="veh_passenger" depart="94.19" departLane="best" from="-28156119#0" to="187325485#3"/>
    <trip id="veh10" type="veh_passenger" depart="134.55" departLane="best" from="5008210" to="-27930596#2"/>
    <trip id="veh11" type="veh_passenger" depart="148.01" departLane="best" from="-175290823#1" to="-187325485#1"/>
    <trip id="veh12" type="veh_passenger" depart="161.46" departLane="best" from="4810626#2" to="23979207#0"/>
    <trip id="veh14" type="veh_passenger" depart="188.37" departLane="best" from="4810578#3" to="-27683089#7"/>
    <trip id="veh15" type="veh_passenger" depart="201.83" departLane="best" from="545451602#0" to="171629747#0"/>
    <trip id="veh16" type="veh_passenger" depart="215.28" departLane="best" from="-28008218#22" to="1279205442#0"/>
    <trip id="veh17" type="veh_passenger" depart="228.74" departLane="best" from="4302843#0" to="-4741125#7"/>
    <trip id="veh18" type="veh_passenger" depart="242.19" departLane="best" from="-168314805#1" to="4316771#4"/>
    <trip id="veh19" type="veh_passenger" depart="255.65" departLane="best" from="-189540210#1" to="-4721530#2"/>
    <trip id="veh20" type="veh_passenger" depart="269.10" departLane="best" from="-27929275#5" to="-702738549#1"/>
    <trip id="veh21" type="veh_passenger" depart="282.56" departLane="best" from="-746502333#1" to="-28008219#19"/>
    <trip id="veh23" type="veh_passenger" depart="309.47" departLane="best" from="27930286#9" to="27683075#3"/>
    <trip id="veh24" type="veh_passenger" depart="322.92" departLane="best" from="-27930621#36" to="4251234#2"/>
    <trip id="veh25" type="veh_passenger" depart="336.38" departLane="best" from="156465749#2" to="28008178#1"/>
    <trip id="veh26" type="veh_passenger" depart="349.83" departLane="best" from="4810585#2" to="-4525228#2"/>
    <trip id="veh27" type="veh_passenger" depart="363.29" departLane="best" from="4302843#3" to="-1204821212#3"/>
    <trip id="veh29" type="veh_passenger" depart="390.20" departLane="best" from="-28008219#5" to="8056015#4"/>
    <trip id="veh30" type="veh_passenger" depart="403.65" departLane="best" from="79707615#2" to="1006421038#0"/>
    <trip id="veh31" type="veh_passenger" depart="417.11" departLane="best" from="4525228#4" to="-4469144#0"/>
    <trip id="veh32" type="veh_passenger" depart="430.56" departLane="best" from="167121164" to="4525210#8"/>
    <trip id="veh33" type="veh_passenger" depart="444.02" departLane="best" from="-175289882#3" to="-702738549#15"/>
    <trip id="veh34" type="veh_passenger" depart="457.47" departLane="best" from="79819327#0" to="-28008222#2"/>
    <trip id="veh35" type="veh_passenger" depart="470.93" departLane="best" from="987276834#1" to="-1241211927#4"/>
    <trip id="veh36" type="veh_passenger" depart="484.38" departLane="best" from="-175289882#0" to="-1279205443#2"/>
    <trip id="veh37" type="veh_passenger" depart="497.84" departLane="best" from="-23979154#3" to="27929143#1"/>
    <trip id="veh38" type="veh_passenger" depart="511.29" departLane="best" from="-4721530#16" to="-86326107"/>
    <trip id="veh39" type="veh_passenger" depart="524.75" departLane="best" from="1290072194#5" to="-79707615#2"/>
    <trip id="veh40" type="veh_passenger" depart="538.20" departLane="best" from="987276833#7" to="1286258899#5"/>
    <trip id="veh41" type="veh_passenger" depart="551.66" departLane="best" from="86326091#10" to="545451602#2"/>
    <trip id="veh42" type="veh_passenger" depart="565.11" departLane="best" from="1006432267#1" to="28156120#2"/>
    <trip id="veh44" type="veh_passenger" depart="592.02" departLane="best" from="-254846268" to="1001045462#1"/>
    <trip id="veh45" type="veh_passenger" depart="605.48" departLane="best" from="1005337066#3" to="808525248#4"/>
    <trip id="veh46" type="veh_passenger" depart="618.93" departLane="best" from="-1255276395#0" to="4525210#9"/>
    <trip id="veh47" type="veh_passenger" depart="632.39" departLane="best" from="1204821212#11" to="27930625#13"/>
    <trip id="veh48" type="veh_passenger" depart="645.84" departLane="best" from="79707609#1" to="561680353"/>
    <trip id="veh49" type="veh_passenger" depart="659.30" departLane="best" from="-4810575#15" to="27930285#13"/>
    <trip id="veh50" type="veh_passenger" depart="672.75" departLane="best" from="27681444#4" to="-27930596#10"/>
    <trip id="veh51" type="veh_passenger" depart="686.21" departLane="best" from="-4516372#6" to="-1290072194#2"/>
    <trip id="veh52" type="veh_passenger" depart="699.66" departLane="best" from="-4525228#1" to="1286563759#1"/>
    <trip id="veh53" type="veh_passenger" depart="713.12" departLane="best" from="-1001048839#1" to="-4810584#4"/>
    <trip id="veh55" type="veh_passenger" depart="740.03" departLane="best" from="-4810577#19" to="1288295820"/>
    <trip id="veh56" type="veh_passenger" depart="753.48" departLane="best" from="628628140#2" to="8057870#4"/>
    <trip id="veh57" type="veh_passenger" depart="766.94" departLane="best" from="-169763562" to="-1074295407#1"/>
    <trip id="veh58" type="veh_passenger" depart="780.39" departLane="best" from="1128395118" to="-4516374#0"/>
    <trip id="veh59" type="veh_passenger" depart="793.85" departLane="best" from="4516374#5" to="-27683097#6"/>
    <trip id="veh61" type="veh_passenger" depart="820.76" departLane="best" from="4525228#4" to="613788729"/>
    <trip id="veh62" type="veh_passenger" depart="834.21" departLane="best" from="-951509955#0" to="-28008219#6"/>
    <trip id="veh63" type="veh_passenger" depart="847.67" departLane="best" from="1290072194#5" to="4251234#2"/>
    <trip id="veh64" type="veh_passenger" depart="861.12" departLane="best" from="28008215#1" to="-4810578#3"/>
    <trip id="veh65" type="veh_passenger" depart="874.58" departLane="best" from="987276833#17" to="27930596#12"/>
    <trip id="veh67" type="veh_passenger" depart="901.49" departLane="best" from="-27683089#21" to="-28156123#15"/>
    <trip id="veh68" type="veh_passenger" depart="914.94" departLane="best" from="-4810758#1" to="187325485#2"/>
    <trip id="veh69" type="veh_passenger" depart="928.40" departLane="best" from="4302843#4" to="-28156118"/>
    <trip id="veh70" type="veh_passenger" depart="941.85" departLane="best" from="156465749#2" to="-27929270#2"/>
    <trip id="veh71" type="veh_passenger" depart="955.31" departLane="best" from="4302843#3" to="780214#1"/>
    <trip id="veh72" type="veh_passenger" depart="968.76" departLane="best" from="5008210" to="1290645106#1"/>
    <trip id="veh73" type="veh_passenger" depart="982.22" departLane="best" from="4422125#0" to="27930621#42"/>
    <trip id="veh74" type="veh_passenger" depart="995.67" departLane="best" from="-28008220#17" to="27929143#3"/>
    <trip id="veh76" type="veh_passenger" depart="1022.59" departLane="best" from="561680353" to="-4721511"/>
    <trip id="veh78" type="veh_passenger" depart="1049.50" departLane="best" from="-187325485#2" to="-987276834#1"/>
    <trip id="veh79" type="veh_passenger" depart="1062.95" departLane="best" from="-951509955#1" to="-1006440425#0"/>
    <trip id="veh80" type="veh_passenger" depart="1076.41" departLane="best" departSpeed="max" from="377315375" to="-27930623#8"/>
    <trip id="veh81" type="veh_passenger" depart="1089.86" departLane="best" from="-951509955#0" to="187325485#3"/>
    <trip id="veh82" type="veh_passenger" depart="1103.32" departLane="best" from="-79819330#1" to="-5008205#0"/>
    <trip id="veh83" type="veh_passenger" depart="1116.77" departLane="best" from="545451602#0" to="-4469144#5"/>
    <trip id="veh85" type="veh_passenger" depart="1143.68" departLane="best" from="86326117#0" to="-4721530#4"/>
    <trip id="veh86" type="veh_passenger" depart="1157.14" departLane="best" from="4469144#8" to="79707628#6"/>
    <trip id="veh87" type="veh_passenger" depart="1170.59" departLane="best" from="154830384#0" to="-1286214012#2"/>
    <trip id="veh88" type="veh_passenger" depart="1184.05" departLane="best" from="987276834#8" to="4810584#10"/>
    <trip id="veh89" type="veh_passenger" depart="1197.50" departLane="best" from="83299925#0" to="-79708055#3"/>
    <trip id="veh90" type="veh_passenger" depart="1210.96" departLane="best" from="4810627#0" to="-27930621#13"/>
    <trip id="veh91" type="veh_passenger" depart="1224.41" departLane="best" from="-1069076529#3" to="-28008220#14"/>
    <trip id="veh92" type="veh_passenger" depart="1237.87" departLane="best" from="-79819328#2" to="1289609186"/>
    <trip id="veh93" type="veh_passenger" depart="1251.32" departLane="best" from="79707604#0" to="965084433#1"/>
    <trip id="veh95" type="veh_passenger" depart="1278.23" departLane="best" from="1005337072" to="-86326117#2"/>
    <trip id="veh96" type="veh_passenger" depart="1291.69" departLane="best" from="808525251#3" to="987276833#2"/>
    <trip id="veh97" type="veh_passenger" depart="1305.14" departLane="best" from="156465747#1" to="28019543#3"/>
    <trip id="veh98" type="veh_passenger" depart="1318.60" departLane="best" from="-27930596#15" to="4810281#2"/>
    <trip id="veh100" type="veh_passenger" depart="1345.51" departLane="best" from="1290645110#1" to="-4422127#1"/>
    <trip id="veh102" type="veh_passenger" depart="1372.42" departLane="best" from="1204821212#7" to="-4810755#1"/>
    <trip id="veh103" type="veh_passenger" depart="1385.87" departLane="best" from="27930615#0" to="808536206"/>
    <trip id="veh104" type="veh_passenger" depart="1399.33" departLane="best" from="191973555#1" to="27930625#2"/>
    <trip id="veh105" type="veh_passenger" depart="1412.78" departLane="best" from="-4353079#2" to="-27683089#16"/>
    <trip id="veh106" type="veh_passenger" depart="1426.24" departLane="best" from="-671967031#2" to="-4422127#8"/>
    <trip id="veh107" type="veh_passenger" depart="1439.69" departLane="best" from="191973555#0" to="-27683089#9"/>
    <trip id="veh108" type="veh_passenger" depart="1453.15" departLane="best" from="-86326091#8" to="175290823#0"/>
    <trip id="veh109" type="veh_passenger" depart="1466.60" departLane="best" from="-1279205443#2" to="79819328#1"/>
    <trip id="veh110" type="veh_passenger" depart="1480.06" departLane="best" from="-28008218#18" to="28008222#2"/>
    <trip id="veh111" type="veh_passenger" depart="1493.51" departLane="best" from="4422125#2" to="-79710862#1"/>
    <trip id="veh112" type="veh_passenger" depart="1506.97" departLane="best" from="-27930621#9" to="-4810575#18"/>
    <trip id="veh113" type="veh_passenger" depart="1520.42" departLane="best" from="-4810581#0" to="-4422127#7"/>
    <trip id="veh114" type="veh_passenger" depart="1533.88" departLane="best" from="-165420771#1" to="-1006421035"/>
    <trip id="veh115" type="veh_passenger" depart="1547.33" departLane="best" from="-165420771#2" to="-28008220#12"/>
    <trip id="veh116" type="veh_passenger" depart="1560.79" departLane="best" from="4575267#0" to="-79819326#1"/>
    <trip id="veh117" type="veh_passenger" depart="1574.24" departLane="best" from="631036134#1" to="-628628148"/>
    <trip id="veh119" type="veh_passenger" depart="1601.15" departLane="best" from="4810580#4" to="28008218#6"/>
    <trip id="veh120" type="veh_passenger" depart="1614.61" departLane="best" from="27683075#7" to="987276829#3"/>
    <trip id="veh121" type="veh_passenger" depart="1628.06" departLane="best" from="27930596#6" to="-1006421040#0"/>
    <trip id="veh122" type="veh_passenger" depart="1641.52" departLane="best" from="27929270#0" to="27683075#14"/>
    <trip id="veh123" type="veh_passenger" depart="1654.97" departLane="best" from="-23914285#1" to="154979768#1"/>
    <trip id="veh125" type="veh_passenger" depart="1681.88" departLane="best" from="28008222#2" to="28008218#10"/>
    <trip id="veh126" type="veh_passenger" depart="1695.34" departLane="best" from="-27929275#1" to="-4525228#1"/>
    <trip id="veh127" type="veh_passenger" depart="1708.79" departLane="best" from="1076644330#0" to="780214#1"/>
    <trip id="veh128" type="veh_passenger" depart="1722.25" departLane="best" from="4810591#1" to="175289882#3"/>
    <trip id="veh129" type="veh_passenger" depart="1735.70" departLane="best" from="-951509955#1" to="4721530#14"/>
    <trip id="veh130" type="veh_passenger" depart="1749.16" departLane="best" from="-1001085502" to="4524775#9"/>
    <trip id="veh131" type="veh_passenger" depart="1762.61" departLane="best" from="-27929275#8" to="4525210#6"/>
    <trip id="veh132" type="veh_passenger" depart="1776.07" departLane="best" from="4353079#2" to="154979765#1"/>
    <trip id="veh133" type="veh_passenger" depart="1789.52" departLane="best" from="-987276833#17" to="1006421041"/>
    <trip id="veh134" type="veh_passenger" depart="1802.98" departLane="best" from="746502334#5" to="-1001039629#0"/>
    <trip id="veh135" type="veh_passenger" depart="1816.43" departLane="best" from="-4810581#2" to="175289882#2"/>
    <trip id="veh136" type="veh_passenger" depart="1829.89" departLane="best" from="-4810577#3" to="702738549#3"/>
    <trip id="veh137" type="veh_passenger" depart="1843.34" departLane="best" from="4741115#5" to="545451602#2"/>
    <trip id="veh138" type="veh_passenger" depart="1856.80" departLane="best" from="-4525228#4" to="656839053#1"/>
    <trip id="veh139" type="veh_passenger" depart="1870.25" departLane="best" from="-79824393#1" to="27683092#2"/>
    <trip id="veh140" type="veh_passenger" depart="1883.71" departLane="best" from="-27930596#14" to="79714512#2"/>
    <trip id="veh141" type="veh_passenger" depart="1897.16" departLane="best" from="555566859" to="86326093#2"/>
    <trip id="veh142" type="veh_passenger" depart="1910.62" departLane="best" departSpeed="max" from="4794840#0" to="631036134#4"/>
    <trip id="veh143" type="veh_passenger" depart="1924.07" departLane="best" from="-1080366136#1" to="4353079#0"/>
    <trip id="veh144" type="veh_passenger" depart="1937.53" departLane="best" from="-4810627#5" to="-79714752#1"/>
    <trip id="veh145" type="veh_passenger" depart="1950.98" departLane="best" from="4741125#2" to="555566857"/>
    <trip id="veh146" type="veh_passenger" depart="1964.44" departLane="best" departSpeed="max" from="4794840#0" to="-4575267#3"/>
    <trip id="veh147" type="veh_passenger" depart="1977.89" departLane="best" from="4721511" to="23914332"/>
    <trip id="veh148" type="veh_passenger" depart="1991.35" departLane="best" from="613782963" to="-5008224#2"/>
    <trip id="veh149" type="veh_passenger" depart="2004.80" departLane="best" from="-28156123#10" to="4810575#6"/>
    <trip id="veh150" type="veh_passenger" depart="2018.26" departLane="best" from="-254846268" to="4810577#12"/>
    <trip id="veh151" type="veh_passenger" depart="2031.72" departLane="best" from="4741115#1" to="-4302843#0"/>
    <trip id="veh152" type="veh_passenger" depart="2045.17" departLane="best" from="1074301970" to="-28008182#5"/>
    <trip id="veh153" type="veh_passenger" depart="2058.63" departLane="best" from="-4810592#0" to="555566857"/>
    <trip id="veh154" type="veh_passenger" depart="2072.08" departLane="best" from="27930285#18" to="-79819326#1"/>
    <trip id="veh155" type="veh_passenger" depart="2085.54" departLane="best" from="876658456#2" to="-1290072193"/>
    <trip id="veh156" type="veh_passenger" depart="2098.99" departLane="best" from="79824262#0" to="27683075#14"/>
    <trip id="veh157" type="veh_passenger" depart="2112.45" departLane="best" from="86326091#1" to="27930625#13"/>
    <trip id="veh158" type="veh_passenger" depart="2125.90" departLane="best" from="808572852" to="-4525228#4"/>
    <trip id="veh159" type="veh_passenger" depart="2139.36" departLane="best" from="23979154#0" to="1001045461#0"/>
    <trip id="veh160" type="veh_passenger" depart="2152.81" departLane="best" departSpeed="max" from="377315375" to="4810579#1"/>
    <trip id="veh161" type="veh_passenger" depart="2166.27" departLane="best" from="23979306" to="1250952440#1"/>
    <trip id="veh163" type="veh_passenger" depart="2193.18" departLane="best" from="4516374#3" to="28008219#9"/>
    <trip id="veh164" type="veh_passenger" depart="2206.63" departLane="best" from="-1001048840#1" to="79708053#6"/>
    <trip id="veh165" type="veh_passenger" depart="2220.09" departLane="best" from="1290072194#3" to="-28156118"/>
    <trip id="veh166" type="veh_passenger" depart="2233.54" departLane="best" from="4353079#3" to="-27930623#10"/>
    <trip id="veh167" type="veh_passenger" depart="2247.00" departLane="best" from="-702738549#1" to="-154979768#2"/>
    <trip id="veh168" type="veh_passenger" depart="2260.45" departLane="best" from="-27930621#14" to="-4810626#3"/>
    <trip id="veh169" type="veh_passenger" depart="2273.91" departLane="best" from="28156118" to="-4810575#19"/>
    <trip id="veh170" type="veh_passenger" depart="2287.36" departLane="best" from="-4810577#5" to="79824393#4"/>
    <trip id="veh171" type="veh_passenger" depart="2300.82" departLane="best" from="-79819330#1" to="-4810281#0"/>
    <trip id="veh172" type="veh_passenger" depart="2314.27" departLane="best" from="-27683097#4" to="-86326091#9"/>
    <trip id="veh173" type="veh_passenger" depart="2327.73" departLane="best" from="-79824393#1" to="28006151#1"/>
    <trip id="veh174" type="veh_passenger" depart="2341.18" departLane="best" from="746502334#0" to="-27683089#25"/>
    <trip id="veh175" type="veh_passenger" depart="2354.64" departLane="best" from="1311842160#0" to="-4741125#18"/>
    <trip id="veh176" type="veh_passenger" depart="2368.09" departLane="best" from="-987276834#1" to="172068741#0"/>
    <trip id="veh177" type="veh_passenger" depart="2381.55" departLane="best" from="27930596#9" to="-1006432267#1"/>
    <trip id="veh178" type="veh_passenger" depart="2395.00" departLane="best" from="1001067100#1" to="-28008220#14"/>
    <trip id="veh180" type="veh_passenger" depart="2421.91" departLane="best" from="4741115#5" to="-27930621#29"/>
    <trip id="veh181" type="veh_passenger" depart="2435.37" departLane="best" from="-168319673#2" to="1276582180"/>
    <trip id="veh182" type="veh_passenger" depart="2448.82" departLane="best" from="27929270#2" to="-4810629#7"/>
    <trip id="veh183" type="veh_passenger" depart="2462.28" departLane="best" from="-28008212#2" to="1080366135#1"/>
    <trip id="veh184" type="veh_passenger" depart="2475.73" departLane="best" from="4422127#6" to="1035470064#1"/>
    <trip id="veh185" type="veh_passenger" depart="2489.19" departLane="best" from="1128395116" to="-4422127#3"/>
    <trip id="veh186" type="veh_passenger" depart="2502.64" departLane="best" from="-27930616#3" to="-1003177677#0"/>
    <trip id="veh187" type="veh_passenger" depart="2516.10" departLane="best" from="4422127#0" to="4524775#7"/>
    <trip id="veh188" type="veh_passenger" depart="2529.55" departLane="best" from="27930623#17" to="808536202#0"/>
    <trip id="veh189" type="veh_passenger" depart="2543.01" departLane="best" from="1006536034" to="-4741125#8"/>
    <trip id="veh190" type="veh_passenger" depart="2556.46" departLane="best" from="156465747#0" to="808525246#3"/>
    <trip id="veh191" type="veh_passenger" depart="2569.92" departLane="best" from="671967031#6" to="27683089#11"/>
    <trip id="veh192" type="veh_passenger" depart="2583.37" departLane="best" from="28019565" to="1204821212#7"/>
    <trip id="veh193" type="veh_passenger" depart="2596.83" departLane="best" from="702738549#12" to="4375295"/>
    <trip id="veh195" type="veh_passenger" depart="2623.74" departLane="best" from="4469144#11" to="27930285#10"/>
    <trip id="veh196" type="veh_passenger" depart="2637.19" departLane="best" from="4516374#5" to="1279205442#0"/>
    <trip id="veh197" type="veh_passenger" depart="2650.65" departLane="best" from="-167121171#6" to="-4741125#12"/>
    <trip id="veh199" type="veh_passenger" depart="2677.56" departLane="best" from="-4316771#2" to="28008211#0"/>
    <trip id="veh200" type="veh_passenger" depart="2691.01" departLane="best" from="-79824393#3" to="-1290072194#7"/>
    <trip id="veh201" type="veh_passenger" depart="2704.47" departLane="best" from="-86326093#0" to="746502334#7"/>
    <trip id="veh202" type="veh_passenger" depart="2717.92" departLane="best" from="-175289882#0" to="28008212#2"/>
    <trip id="veh203" type="veh_passenger" depart="2731.38" departLane="best" from="-79707609#3" to="-1005433650#0"/>
    <trip id="veh204" type="veh_passenger" depart="2744.83" departLane="best" from="656839053#0" to="4469144#1"/>
    <trip id="veh205" type="veh_passenger" depart="2758.29" departLane="best" from="4810651#1" to="808525248#4"/>
    <trip id="veh206" type="veh_passenger" depart="2771.74" departLane="best" from="86326091#8" to="-4422127#0"/>
    <trip id="veh207" type="veh_passenger" depart="2785.20" departLane="best" from="144174796#1" to="23979206#0"/>
    <trip id="veh208" type="veh_passenger" depart="2798.65" departLane="best" from="-4810754#2" to="-28006372#0"/>
    <trip id="veh209" type="veh_passenger" depart="2812.11" departLane="best" from="79819865#4" to="27930621#1"/>
    <trip id="veh210" type="veh_passenger" depart="2825.56" departLane="best" from="1006440424#2" to="-27683097#4"/>
    <trip id="veh211" type="veh_passenger" depart="2839.02" departLane="best" from="27683092#2" to="117960883#0"/>
    <trip id="veh212" type="veh_passenger" depart="2852.47" departLane="best" from="79708057#0" to="-167121171#3"/>
    <trip id="veh213" type="veh_passenger" depart="2865.93" departLane="best" from="117960883#0" to="27930286#1"/>
    <trip id="veh214" type="veh_passenger" depart="2879.38" departLane="best" from="27929270#3" to="1006421041"/>
    <trip id="veh215" type="veh_passenger" depart="2892.84" departLane="best" from="-1286214012#2" to="783672"/>
    <trip id="veh216" type="veh_passenger" depart="2906.29" departLane="best" from="-28008219#9" to="4810587#2"/>
    <trip id="veh217" type="veh_passenger" depart="2919.75" departLane="best" from="-4516372#3" to="783672"/>
    <trip id="veh218" type="veh_passenger" depart="2933.20" departLane="best" from="4422127#11" to="4810581#2"/>
    <trip id="veh223" type="veh_passenger" depart="3000.48" departLane="best" from="-27930596#13" to="4469144#2"/>
    <trip id="veh224" type="veh_passenger" depart="3013.93" departLane="best" from="808525246#2" to="-28008212#2"/>
    <trip id="veh225" type="veh_passenger" depart="3027.39" departLane="best" from="-1069076529#1" to="-27930596#1"/>
    <trip id="veh226" type="veh_passenger" depart="3040.85" departLane="best" from="-27683089#9" to="27930621#43"/>
    <trip id="veh227" type="veh_passenger" depart="3054.30" departLane="best" from="167121171#0" to="28008220#7"/>
    <trip id="veh228" type="veh_passenger" depart="3067.76" departLane="best" from="28008215#1" to="4516415#1"/>
    <trip id="veh229" type="veh_passenger" depart="3081.21" departLane="best" from="4422125#1" to="27683075#12"/>
    <trip id="veh230" type="veh_passenger" depart="3094.67" departLane="best" from="23979040" to="1001052089#2"/>
    <trip id="veh231" type="veh_passenger" depart="3108.12" departLane="best" from="-4810578#5" to="28006151#1"/>
    <trip id="veh232" type="veh_passenger" depart="3121.58" departLane="best" from="808536202#0" to="-79714752#0"/>
    <trip id="veh233" type="veh_passenger" depart="3135.03" departLane="best" from="28008220#27" to="-167121171#14"/>
    <trip id="veh234" type="veh_passenger" depart="3148.49" departLane="best" from="-28008182#5" to="27929143#1"/>
    <trip id="veh235" type="veh_passenger" depart="3161.94" departLane="best" from="-196776972" to="4525210#1"/>
    <trip id="veh236" type="veh_passenger" depart="3175.40" departLane="best" from="4810627#5" to="23722708#3"/>
    <trip id="veh237" type="veh_passenger" depart="3188.85" departLane="best" from="-27683089#22" to="951509955#0"/>
    <trip id="veh240" type="veh_passenger" depart="3229.22" departLane="best" from="-1241211927#0" to="-5008224#1"/>
    <trip id="veh241" type="veh_passenger" depart="3242.67" departLane="best" from="4810627#2" to="4810577#19"/>
    <trip id="veh242" type="veh_passenger" depart="3256.13" departLane="best" from="-223982979#2" to="808536206"/>
    <trip id="veh243" type="veh_passenger" depart="3269.58" departLane="best" from="-27929275#4" to="4810579#2"/>
    <trip id="veh244" type="veh_passenger" depart="3283.04" departLane="best" from="28008219#19" to="1001045462#1"/>
    <trip id="veh245" type="veh_passenger" depart="3296.49" departLane="best" from="-4302843#0" to="818393761"/>
    <trip id="veh248" type="veh_passenger" depart="3336.86" departLane="best" from="1001045461#0" to="-4302843#0"/>
    <trip id="veh250" type="veh_passenger" depart="3363.77" departLane="best" from="-4810579#0" to="170130108#2"/>
    <trip id="veh251" type="veh_passenger" depart="3377.22" departLane="best" from="631036134#4" to="-4422127#3"/>
    <trip id="veh252" type="veh_passenger" depart="3390.68" departLane="best" from="1006428687#0" to="27683075#7"/>
    <trip id="veh253" type="veh_passenger" depart="3404.13" departLane="best" from="79707604#0" to="-117960883#3"/>
    <trip id="veh254" type="veh_passenger" depart="3417.59" departLane="best" from="4810629#1" to="-28006151#2"/>
    <trip id="veh255" type="veh_passenger" depart="3431.04" departLane="best" from="5008224#1" to="631036134#0"/>
    <trip id="veh256" type="veh_passenger" depart="3444.50" departLane="best" from="-1006421042" to="808525246#0"/>
    <trip id="veh257" type="veh_passenger" depart="3457.95" departLane="best" from="1076644330#0" to="4516372#3"/>
    <trip id="veh258" type="veh_passenger" depart="3471.41" departLane="best" from="-28008182#5" to="27930286#7"/>
    <trip id="veh259" type="veh_passenger" depart="3484.86" departLane="best" from="1076644330#3" to="-4741115#3"/>
    <trip id="veh260" type="veh_passenger" depart="3498.32" departLane="best" from="-175290823#1" to="-28156120#2"/>
    <trip id="veh261" type="veh_passenger" depart="3511.77" departLane="best" from="28008185#1" to="4810577#15"/>
    <trip id="veh262" type="veh_passenger" depart="3525.23" departLane="best" from="172068741#0" to="1035470064#0"/>
    <trip id="veh263" type="veh_passenger" depart="3538.68" departLane="best" from="1286571609#1" to="-987276828#0"/>
    <trip id="veh264" type="veh_passenger" depart="3552.14" departLane="best" departSpeed="max" from="4375294" to="-4810626#4"/>
    <trip id="veh266" type="veh_passenger" depart="3579.05" departLane="best" from="-4516372#3" to="-27683089#20"/>
    <trip id="veh267" type="veh_passenger" depart="3592.50" departLane="best" from="-28008182#4" to="-27683089#16"/>
</routes>
