<?xml version="1.0" encoding="UTF-8"?>

<!-- generated on 2025-02-21 16:35:05.456515 by randomTrips.py v1_21_0+1021-4606c0d7274
<configuration>
    <net-file value="osm.net.xml.gz"/>
    <output-trip-file value="osm.medium_traffic.passenger.trips.xml"/>
    <route-file value="osm.medium_traffic.passenger.rou.xml"/>
    <prefix value="veh"/>
    <trip-attributes value="departLane=&quot;best&quot;"/>
    <fringe-start-attributes value="departSpeed=&quot;max&quot;"/>
    <vehicle-class value="passenger"/>
    <lanes value="True"/>
    <fringe-factor value="4"/>
    <allow-fringe.min-length value="1000.0"/>
    <via-edge-types value="highway.motorway,highway.motorway_link,highway.trunk_link,highway.primary_link,highway.secondary_link,highway.tertiary_link"/>
    <min-distance value="300.0"/>
    <min-distance.fringe value="10.0"/>
    <remove-loops value="True"/>
    <validate value="True"/>
    <insertion-density value="10.0"/>
</configuration>
-->

<!-- generated on 2025-02-21 16:35:05 by Eclipse SUMO duarouter Version v1_21_0+1021-4606c0d7274
<duarouterConfiguration xmlns:xsi="http://www.w3.org/2001/XMLSchema-instance" xsi:noNamespaceSchemaLocation="http://sumo.dlr.de/xsd/duarouterConfiguration.xsd">

    <input>
        <net-file value="osm.net.xml.gz"/>
        <route-files value="osm.medium_traffic.passenger.trips.xml"/>
    </input>

    <output>
        <output-file value="osm.medium_traffic.passenger.trips.xml.tmp"/>
        <alternatives-output value="NUL"/>
        <write-trips value="true"/>
    </output>

    <processing>
        <remove-loops value="true"/>
    </processing>

    <time>
        <begin value="0.0"/>
        <end value="3600.0"/>
    </time>

    <report>
        <no-warnings value="true"/>
        <ignore-errors value="true"/>
        <no-step-log value="true"/>
    </report>

</duarouterConfiguration>
-->

<routes xmlns:xsi="http://www.w3.org/2001/XMLSchema-instance" xsi:noNamespaceSchemaLocation="http://sumo.dlr.de/xsd/routes_file.xsd">
    <vType id="veh_passenger" vClass="passenger"/>
    <trip id="veh0" type="veh_passenger" depart="0.00" departLane="best" from="27930285#15" to="1080366137#1"/>
    <trip id="veh1" type="veh_passenger" depart="6.73" departLane="best" from="4302843#4" to="28008167#1"/>
    <trip id="veh3" type="veh_passenger" depart="20.18" departLane="best" from="-987276833#17" to="-11985681#1"/>
    <trip id="veh4" type="veh_passenger" depart="26.91" departLane="best" from="-28156123#0" to="-1241211927#3"/>
    <trip id="veh5" type="veh_passenger" depart="33.64" departLane="best" from="117960883#0" to="-28008215#0"/>
    <trip id="veh6" type="veh_passenger" depart="40.37" departLane="best" from="-27930596#13" to="1336569593#2"/>
    <trip id="veh7" type="veh_passenger" depart="47.09" departLane="best" from="-28156123#12" to="187325485#6"/>
    <trip id="veh9" type="veh_passenger" depart="60.55" departLane="best" from="-555566891#3" to="-27930596#9"/>
    <trip id="veh10" type="veh_passenger" depart="67.28" departLane="best" from="-175291411#0" to="-187325485#3"/>
    <trip id="veh11" type="veh_passenger" depart="74.00" departLane="best" from="-4810589#3" to="27681444#2"/>
    <trip id="veh13" type="veh_passenger" depart="87.46" departLane="best" from="-79707615#9" to="154979769#2"/>
    <trip id="veh14" type="veh_passenger" depart="94.19" departLane="best" from="-4810577#5" to="27683092#3"/>
    <trip id="veh15" type="veh_passenger" depart="100.91" departLane="best" from="5008224#1" to="172068741#0"/>
    <trip id="veh16" type="veh_passenger" depart="107.64" departLane="best" from="28008219#13" to="1279205443#0"/>
    <trip id="veh19" type="veh_passenger" depart="127.82" departLane="best" from="-196776973#1" to="-4741115#3"/>
    <trip id="veh20" type="veh_passenger" depart="134.55" departLane="best" from="-27929275#8" to="-702738549#6"/>
    <trip id="veh21" type="veh_passenger" depart="141.28" departLane="best" from="780214#6" to="-28008219#9"/>
    <trip id="veh23" type="veh_passenger" depart="154.73" departLane="best" from="27930287#4" to="27683089#1"/>
    <trip id="veh24" type="veh_passenger" depart="161.46" departLane="best" from="-27930621#43" to="-4302843#3"/>
    <trip id="veh25" type="veh_passenger" depart="168.19" departLane="best" from="4759427#0" to="28008182#3"/>
    <trip id="veh26" type="veh_passenger" depart="174.92" departLane="best" from="-4810584#20" to="-4575267#1"/>
    <trip id="veh27" type="veh_passenger" depart="181.64" departLane="best" from="-4316771#4" to="-1204821212#6"/>
    <trip id="veh29" type="veh_passenger" depart="195.10" departLane="best" from="-28008220#15" to="8056015#1"/>
    <trip id="veh30" type="veh_passenger" depart="201.83" departLane="best" from="613788732" to="-4810582#3"/>
    <trip id="veh31" type="veh_passenger" depart="208.55" departLane="best" from="-27930620#1" to="-79819327#0"/>
    <trip id="veh32" type="veh_passenger" depart="215.28" departLane="best" from="79707609#2" to="27681443#1"/>
    <trip id="veh34" type="veh_passenger" depart="228.74" departLane="best" departSpeed="max" from="167121167" to="-4575267#0"/>
    <trip id="veh35" type="veh_passenger" depart="235.46" departLane="best" from="175290823#0" to="-702738549#11"/>
    <trip id="veh36" type="veh_passenger" depart="242.19" departLane="best" from="-79819868" to="-28156120#2"/>
    <trip id="veh37" type="veh_passenger" depart="248.92" departLane="best" from="987276834#1" to="1255276395#1"/>
    <trip id="veh38" type="veh_passenger" depart="255.65" departLane="best" from="-175289882#3" to="-1279205443#2"/>
    <trip id="veh39" type="veh_passenger" depart="262.37" departLane="best" from="-254846268" to="-27929270#0"/>
    <trip id="veh40" type="veh_passenger" depart="269.10" departLane="best" from="987276833#7" to="1286563759#2"/>
    <trip id="veh41" type="veh_passenger" depart="275.83" departLane="best" from="86326091#1" to="555527550#0"/>
    <trip id="veh42" type="veh_passenger" depart="282.56" departLane="best" from="1006432267#1" to="28156123#15"/>
    <trip id="veh44" type="veh_passenger" depart="296.01" departLane="best" from="-27681444#2" to="1001052088#1"/>
    <trip id="veh45" type="veh_passenger" depart="302.74" departLane="best" from="1005337074#2" to="808525248#4"/>
    <trip id="veh46" type="veh_passenger" depart="309.47" departLane="best" from="613788732" to="-4575267#1"/>
    <trip id="veh47" type="veh_passenger" depart="316.19" departLane="best" departSpeed="max" from="121174586" to="-27930625#9"/>
    <trip id="veh48" type="veh_passenger" depart="322.92" departLane="best" from="783634#2" to="555566893#4"/>
    <trip id="veh49" type="veh_passenger" depart="329.65" departLane="best" from="4810576#3" to="27930285#8"/>
    <trip id="veh50" type="veh_passenger" depart="336.38" departLane="best" from="-27683075#15" to="-27930596#14"/>
    <trip id="veh51" type="veh_passenger" depart="343.10" departLane="best" from="-4516372#3" to="-1290072194#5"/>
    <trip id="veh52" type="veh_passenger" depart="349.83" departLane="best" from="-4525210#8" to="-1286563769#0"/>
    <trip id="veh53" type="veh_passenger" depart="356.56" departLane="best" from="-1001048839#1" to="-4810589#3"/>
    <trip id="veh54" type="veh_passenger" depart="363.29" departLane="best" from="-1069076529#0" to="79710862#2"/>
    <trip id="veh55" type="veh_passenger" depart="370.01" departLane="best" from="628628140#0" to="-4810582#0"/>
    <trip id="veh56" type="veh_passenger" depart="376.74" departLane="best" from="-4810578#4" to="1289609186"/>
    <trip id="veh57" type="veh_passenger" depart="383.47" departLane="best" from="628628134" to="8057870#3"/>
    <trip id="veh58" type="veh_passenger" depart="390.20" departLane="best" from="-170130108#2" to="1076644331"/>
    <trip id="veh59" type="veh_passenger" depart="396.92" departLane="best" from="154979768#1" to="-4516374#4"/>
    <trip id="veh60" type="veh_passenger" depart="403.65" departLane="best" from="4516374#2" to="27683100#2"/>
    <trip id="veh62" type="veh_passenger" depart="417.11" departLane="best" from="-987276833#7" to="-28008220#15"/>
    <trip id="veh63" type="veh_passenger" depart="423.83" departLane="best" from="-1069076529#0" to="-4302843#3"/>
    <trip id="veh64" type="veh_passenger" depart="430.56" departLane="best" from="-28008218#14" to="-4810580#2"/>
    <trip id="veh65" type="veh_passenger" depart="437.29" departLane="best" from="-987276833#17" to="27930596#7"/>
    <trip id="veh66" type="veh_passenger" depart="444.02" departLane="best" from="1001067100#0" to="1276582199#1"/>
    <trip id="veh67" type="veh_passenger" depart="450.74" departLane="best" from="27683089#27" to="-370552714"/>
    <trip id="veh68" type="veh_passenger" depart="457.47" departLane="best" from="-545451602#1" to="187325485#5"/>
    <trip id="veh69" type="veh_passenger" depart="464.20" departLane="best" from="4353079#0" to="-28156123#1"/>
    <trip id="veh70" type="veh_passenger" depart="470.93" departLane="best" from="-165420760#1" to="27929275#4"/>
    <trip id="veh71" type="veh_passenger" depart="477.65" departLane="best" from="-4316771#3" to="746502334#6"/>
    <trip id="veh72" type="veh_passenger" depart="484.38" departLane="best" from="489138809#0" to="1001048841#4"/>
    <trip id="veh73" type="veh_passenger" depart="491.11" departLane="best" from="4422127#0" to="-27930623#18"/>
    <trip id="veh74" type="veh_passenger" depart="497.84" departLane="best" from="-28008220#3" to="-27929216#3"/>
    <trip id="veh78" type="veh_passenger" depart="524.75" departLane="best" from="-187325485#3" to="1001045463#0"/>
    <trip id="veh79" type="veh_passenger" depart="531.48" departLane="best" from="987276833#8" to="1035353261#1"/>
    <trip id="veh80" type="veh_passenger" depart="538.20" departLane="best" departSpeed="max" from="377315375" to="28006151#0"/>
    <trip id="veh81" type="veh_passenger" depart="544.93" departLane="best" from="-951509955#0" to="187325485#5"/>
    <trip id="veh82" type="veh_passenger" depart="551.66" departLane="best" from="-79824393#4" to="-545451602#1"/>
    <trip id="veh83" type="veh_passenger" depart="558.39" departLane="best" from="5008224#1" to="4516372#1"/>
    <trip id="veh85" type="veh_passenger" depart="571.84" departLane="best" from="-987276833#17" to="-4741115#5"/>
    <trip id="veh86" type="veh_passenger" depart="578.57" departLane="best" from="-4516372#7" to="79707628#22"/>
    <trip id="veh87" type="veh_passenger" depart="585.30" departLane="best" from="154979766#1" to="-1286214012#3"/>
    <trip id="veh88" type="veh_passenger" depart="592.02" departLane="best" from="987276834#8" to="4810584#15"/>
    <trip id="veh89" type="veh_passenger" depart="598.75" departLane="best" from="83299925#0" to="79708053#6"/>
    <trip id="veh90" type="veh_passenger" depart="605.48" departLane="best" from="-4810584#13" to="27930621#18"/>
    <trip id="veh91" type="veh_passenger" depart="612.21" departLane="best" from="1076644330#2" to="28008220#2"/>
    <trip id="veh92" type="veh_passenger" depart="618.93" departLane="best" from="-79824393#1" to="-1290072193"/>
    <trip id="veh93" type="veh_passenger" depart="625.66" departLane="best" from="-79707626#1" to="965084433#1"/>
    <trip id="veh95" type="veh_passenger" depart="639.12" departLane="best" from="1006421035" to="987276833#16"/>
    <trip id="veh96" type="veh_passenger" depart="645.84" departLane="best" from="808525251#3" to="987276833#2"/>
    <trip id="veh97" type="veh_passenger" depart="652.57" departLane="best" from="1001067101" to="28156123#1"/>
    <trip id="veh98" type="veh_passenger" depart="659.30" departLane="best" from="27930596#7" to="-4810575#18"/>
    <trip id="veh99" type="veh_passenger" depart="666.03" departLane="best" from="83299924#3" to="172545612#0"/>
    <trip id="veh100" type="veh_passenger" depart="672.75" departLane="best" from="-1288295820" to="187325485#0"/>
    <trip id="veh102" type="veh_passenger" depart="686.21" departLane="best" from="-27930620#11" to="808536206"/>
    <trip id="veh104" type="veh_passenger" depart="699.66" departLane="best" from="191973555#1" to="-28006327"/>
    <trip id="veh105" type="veh_passenger" depart="706.39" departLane="best" from="4422125#1" to="-27683089#22"/>
    <trip id="veh106" type="veh_passenger" depart="713.12" departLane="best" from="671967031#15" to="-4469144#6"/>
    <trip id="veh107" type="veh_passenger" depart="719.85" departLane="best" from="191973555#1" to="27683092#5"/>
    <trip id="veh108" type="veh_passenger" depart="726.57" departLane="best" from="-987276828#0" to="175291411#2"/>
    <trip id="veh109" type="veh_passenger" depart="733.30" departLane="best" from="1286214012#3" to="79819328#0"/>
    <trip id="veh110" type="veh_passenger" depart="740.03" departLane="best" from="-28008218#9" to="-28156118"/>
    <trip id="veh111" type="veh_passenger" depart="746.76" departLane="best" from="4422127#10" to="-79819327#0"/>
    <trip id="veh112" type="veh_passenger" depart="753.48" departLane="best" from="27930623#17" to="-4810576#5"/>
    <trip id="veh113" type="veh_passenger" depart="760.21" departLane="best" from="-165420771#3" to="1006428686#1"/>
    <trip id="veh114" type="veh_passenger" depart="766.94" departLane="best" from="167121171#0" to="-28008220#19"/>
    <trip id="veh116" type="veh_passenger" depart="780.39" departLane="best" from="780214#4" to="27930620#1"/>
    <trip id="veh117" type="veh_passenger" depart="787.12" departLane="best" from="-4810579#2" to="28008219#21"/>
    <trip id="veh118" type="veh_passenger" depart="793.85" departLane="best" from="27683075#9" to="987276829#3"/>
    <trip id="veh119" type="veh_passenger" depart="800.58" departLane="best" from="-27930616#2" to="1006421040#0"/>
    <trip id="veh120" type="veh_passenger" depart="807.30" departLane="best" from="-27930621#17" to="-79819865#3"/>
    <trip id="veh121" type="veh_passenger" depart="814.03" departLane="best" from="27929270#4" to="-27683075#6"/>
    <trip id="veh122" type="veh_passenger" depart="820.76" departLane="best" from="23979154#0" to="191973555#1"/>
    <trip id="veh123" type="veh_passenger" depart="827.49" departLane="best" from="-4721530#13" to="-27681444#4"/>
    <trip id="veh124" type="veh_passenger" depart="834.21" departLane="best" from="28156119#0" to="-28008218#20"/>
    <trip id="veh126" type="veh_passenger" depart="847.67" departLane="best" from="-1080366136#0" to="746502334#6"/>
    <trip id="veh127" type="veh_passenger" depart="854.40" departLane="best" from="-4810587#2" to="175290823#2"/>
    <trip id="veh128" type="veh_passenger" depart="861.12" departLane="best" from="-1001085502" to="4525210#4"/>
    <trip id="veh129" type="veh_passenger" depart="867.85" departLane="best" from="-27930285#0" to="-4525228#3"/>
    <trip id="veh130" type="veh_passenger" depart="874.58" departLane="best" from="4353079#2" to="154979768#1"/>
    <trip id="veh131" type="veh_passenger" depart="881.31" departLane="best" departSpeed="max" from="1000824085" to="1006421041"/>
    <trip id="veh132" type="veh_passenger" depart="888.03" departLane="best" from="167121171#3" to="631036134#4"/>
    <trip id="veh133" type="veh_passenger" depart="894.76" departLane="best" from="746502334#0" to="135920189#1"/>
    <trip id="veh134" type="veh_passenger" depart="901.49" departLane="best" from="4810580#1" to="175290825"/>
    <trip id="veh135" type="veh_passenger" depart="908.22" departLane="best" from="-4810578#5" to="-702738549#15"/>
    <trip id="veh136" type="veh_passenger" depart="914.94" departLane="best" from="4741115#1" to="555527550#0"/>
    <trip id="veh137" type="veh_passenger" depart="921.67" departLane="best" from="-4516372#6" to="200899063"/>
    <trip id="veh138" type="veh_passenger" depart="928.40" departLane="best" from="4525228#2" to="-631036139#0"/>
    <trip id="veh139" type="veh_passenger" depart="935.13" departLane="best" from="555527550#0" to="86326093#2"/>
    <trip id="veh140" type="veh_passenger" depart="941.85" departLane="best" departSpeed="max" from="4794840#0" to="-628628148"/>
    <trip id="veh141" type="veh_passenger" depart="948.58" departLane="best" from="-1080366137#1" to="4353081#0"/>
    <trip id="veh142" type="veh_passenger" depart="955.31" departLane="best" from="-4810754#3" to="-79714752#0"/>
    <trip id="veh143" type="veh_passenger" depart="962.04" departLane="best" from="4741125#18" to="555566856"/>
    <trip id="veh146" type="veh_passenger" depart="982.22" departLane="best" from="561680353" to="-5008224#3"/>
    <trip id="veh147" type="veh_passenger" depart="988.95" departLane="best" from="-28156123#17" to="4810576#10"/>
    <trip id="veh148" type="veh_passenger" depart="995.67" departLane="best" from="1006428687#0" to="-4810577#3"/>
    <trip id="veh149" type="veh_passenger" depart="1002.40" departLane="best" from="-4721530#8" to="-4302843#3"/>
    <trip id="veh150" type="veh_passenger" depart="1009.13" departLane="best" from="1074301970" to="-28008185#3"/>
    <trip id="veh151" type="veh_passenger" depart="1015.86" departLane="best" from="-4810629#1" to="555566856"/>
    <trip id="veh152" type="veh_passenger" depart="1022.59" departLane="best" from="83299915" to="-4741117#6"/>
    <trip id="veh153" type="veh_passenger" depart="1029.31" departLane="best" from="-27930286#1" to="-79819865#2"/>
    <trip id="veh154" type="veh_passenger" depart="1036.04" departLane="best" from="876658456#2" to="-1290072194#1"/>
    <trip id="veh155" type="veh_passenger" depart="1042.77" departLane="best" from="79819865#4" to="27683075#6"/>
    <trip id="veh157" type="veh_passenger" depart="1056.22" departLane="best" from="-23979206#0" to="1001052088#1"/>
    <trip id="veh158" type="veh_passenger" depart="1062.95" departLane="best" from="1006432263#0" to="1263697477#1"/>
    <trip id="veh160" type="veh_passenger" depart="1076.41" departLane="best" from="4516399#2" to="28008220#2"/>
    <trip id="veh161" type="veh_passenger" depart="1083.13" departLane="best" from="-1001048840#1" to="79708053#5"/>
    <trip id="veh162" type="veh_passenger" depart="1089.86" departLane="best" from="-1290645110#0" to="28156123#11"/>
    <trip id="veh163" type="veh_passenger" depart="1096.59" departLane="best" from="4353079#3" to="27930625#10"/>
    <trip id="veh164" type="veh_passenger" depart="1103.32" departLane="best" from="-702738549#7" to="-156465749#1"/>
    <trip id="veh165" type="veh_passenger" depart="1110.04" departLane="best" from="-27930621#25" to="-4810629#3"/>
    <trip id="veh166" type="veh_passenger" depart="1116.77" departLane="best" from="4810582#3" to="4810629#3"/>
    <trip id="veh167" type="veh_passenger" depart="1123.50" departLane="best" from="28156123#10" to="-4810576#7"/>
    <trip id="veh168" type="veh_passenger" depart="1130.23" departLane="best" from="-4810579#2" to="-8057870#16"/>
    <trip id="veh169" type="veh_passenger" depart="1136.95" departLane="best" from="-79824393#4" to="-4810575#15"/>
    <trip id="veh170" type="veh_passenger" depart="1143.68" departLane="best" from="-27683100#1" to="965084433#1"/>
    <trip id="veh171" type="veh_passenger" depart="1150.41" departLane="best" from="79824262#1" to="28008167#3"/>
    <trip id="veh173" type="veh_passenger" depart="1163.86" departLane="best" from="-4810577#12" to="154565321"/>
    <trip id="veh174" type="veh_passenger" depart="1170.59" departLane="best" from="1311842160#0" to="-4741125#9"/>
    <trip id="veh175" type="veh_passenger" depart="1177.32" departLane="best" departSpeed="max" from="1000824085" to="175289882#0"/>
    <trip id="veh176" type="veh_passenger" depart="1184.05" departLane="best" from="-27930617#1" to="1005337073#5"/>
    <trip id="veh177" type="veh_passenger" depart="1190.77" departLane="best" from="1001067102#2" to="28008220#2"/>
    <trip id="veh179" type="veh_passenger" depart="1204.23" departLane="best" from="4741115#0" to="-27930621#38"/>
    <trip id="veh181" type="veh_passenger" depart="1217.68" departLane="best" from="-27929275#1" to="-489138126#1"/>
    <trip id="veh182" type="veh_passenger" depart="1224.41" departLane="best" from="27930623#8" to="-370552714"/>
    <trip id="veh183" type="veh_passenger" depart="1231.14" departLane="best" from="-28008216#2" to="1080366136#1"/>
    <trip id="veh184" type="veh_passenger" depart="1237.87" departLane="best" from="4469144#4" to="1067005198#1"/>
    <trip id="veh185" type="veh_passenger" depart="1244.59" departLane="best" from="-86326093#0" to="27929275#1"/>
    <trip id="veh186" type="veh_passenger" depart="1251.32" departLane="best" from="-28008207#1" to="28008218#1"/>
    <trip id="veh187" type="veh_passenger" depart="1258.05" departLane="best" from="-117960883#3" to="-4469144#0"/>
    <trip id="veh188" type="veh_passenger" depart="1264.78" departLane="best" from="27930620#12" to="-1003177677#0"/>
    <trip id="veh189" type="veh_passenger" depart="1271.50" departLane="best" from="4422126#1" to="4524775#9"/>
    <trip id="veh190" type="veh_passenger" depart="1278.23" departLane="best" from="23979040" to="-987276833#8"/>
    <trip id="veh191" type="veh_passenger" depart="1284.96" departLane="best" from="-27930625#12" to="808525251#3"/>
    <trip id="veh192" type="veh_passenger" depart="1291.69" departLane="best" from="-4516372#5" to="4810629#4"/>
    <trip id="veh194" type="veh_passenger" depart="1305.14" departLane="best" from="-27930621#39" to="987276830#3"/>
    <trip id="veh195" type="veh_passenger" depart="1311.87" departLane="best" from="-196776972" to="808525246#2"/>
    <trip id="veh196" type="veh_passenger" depart="1318.60" departLane="best" from="671967031#2" to="27683089#24"/>
    <trip id="veh197" type="veh_passenger" depart="1325.32" departLane="best" from="28156123#0" to="-1241211927#1"/>
    <trip id="veh198" type="veh_passenger" depart="1332.05" departLane="best" from="4810578#1" to="154565321"/>
    <trip id="veh199" type="veh_passenger" depart="1338.78" departLane="best" from="693555192#1" to="-4422125#1"/>
    <trip id="veh200" type="veh_passenger" depart="1345.51" departLane="best" from="-1037317917#4" to="4525210#6"/>
    <trip id="veh201" type="veh_passenger" depart="1352.23" departLane="best" from="-4516372#0" to="27930285#3"/>
    <trip id="veh202" type="veh_passenger" depart="1358.96" departLane="best" from="4516374#2" to="1279205442#1"/>
    <trip id="veh203" type="veh_passenger" depart="1365.69" departLane="best" from="-27683105#2" to="4721530#16"/>
    <trip id="veh204" type="veh_passenger" depart="1372.42" departLane="best" from="-167121171#9" to="-4741125#6"/>
    <trip id="veh205" type="veh_passenger" depart="1379.14" departLane="best" from="-4721530#12" to="-4810584#20"/>
    <trip id="veh206" type="veh_passenger" depart="1385.87" departLane="best" from="1311842160#0" to="-27929275#8"/>
    <trip id="veh207" type="veh_passenger" depart="1392.60" departLane="best" from="-4353079#1" to="28008214#1"/>
    <trip id="veh208" type="veh_passenger" depart="1399.33" departLane="best" from="28008219#22" to="-1290072194#7"/>
    <trip id="veh209" type="veh_passenger" depart="1406.05" departLane="best" from="-8057870#4" to="1290645110#1"/>
    <trip id="veh210" type="veh_passenger" depart="1412.78" departLane="best" from="-86326107" to="-28008219#16"/>
    <trip id="veh211" type="veh_passenger" depart="1419.51" departLane="best" from="-987276829#3" to="746502334#5"/>
    <trip id="veh212" type="veh_passenger" depart="1426.24" departLane="best" from="-175289882#3" to="28008216#3"/>
    <trip id="veh213" type="veh_passenger" depart="1432.96" departLane="best" from="-79707628#1" to="-1005433650#0"/>
    <trip id="veh214" type="veh_passenger" depart="1439.69" departLane="best" from="-671967031#14" to="-4469144#5"/>
    <trip id="veh215" type="veh_passenger" depart="1446.42" departLane="best" from="4810629#3" to="808525248#3"/>
    <trip id="veh216" type="veh_passenger" depart="1453.15" departLane="best" from="-965084433#1" to="-4422127#11"/>
    <trip id="veh217" type="veh_passenger" depart="1459.87" departLane="best" departSpeed="max" from="149227836#0" to="-27681444#0"/>
    <trip id="veh218" type="veh_passenger" depart="1466.60" departLane="best" from="-165420760#0" to="-11985681#0"/>
    <trip id="veh219" type="veh_passenger" depart="1473.33" departLane="best" from="5008224#1" to="28008170#2"/>
    <trip id="veh220" type="veh_passenger" depart="1480.06" departLane="best" from="-8056017#0" to="27930621#14"/>
    <trip id="veh221" type="veh_passenger" depart="1486.78" departLane="best" from="1006536035#4" to="27683100#0"/>
    <trip id="veh222" type="veh_passenger" depart="1493.51" departLane="best" from="79819326#1" to="167121171#9"/>
    <trip id="veh223" type="veh_passenger" depart="1500.24" departLane="best" from="117960883#0" to="27930286#7"/>
    <trip id="veh224" type="veh_passenger" depart="1506.97" departLane="best" from="-27929275#3" to="1006440425#1"/>
    <trip id="veh225" type="veh_passenger" depart="1513.70" departLane="best" from="-1286214012#3" to="-79707615#8"/>
    <trip id="veh226" type="veh_passenger" depart="1520.42" departLane="best" from="-28008220#17" to="-4810626#4"/>
    <trip id="veh227" type="veh_passenger" depart="1527.15" departLane="best" from="4469144#9" to="-79707615#8"/>
    <trip id="veh228" type="veh_passenger" depart="1533.88" departLane="best" from="-4422126#3" to="-4810582#2"/>
    <trip id="veh233" type="veh_passenger" depart="1567.52" departLane="best" from="27930596#3" to="-4469144#7"/>
    <trip id="veh234" type="veh_passenger" depart="1574.24" departLane="best" from="808525246#2" to="-28008215#1"/>
    <trip id="veh235" type="veh_passenger" depart="1580.97" departLane="best" from="-1069076529#2" to="27930596#13"/>
    <trip id="veh236" type="veh_passenger" depart="1587.70" departLane="best" from="167121171#10" to="-28156118"/>
    <trip id="veh237" type="veh_passenger" depart="1594.43" departLane="best" from="-28008218#10" to="4524775#5"/>
    <trip id="veh238" type="veh_passenger" depart="1601.15" departLane="best" from="-27930621#31" to="-27683075#6"/>
    <trip id="veh239" type="veh_passenger" depart="1607.88" departLane="best" departSpeed="max" from="4375294" to="27683075#3"/>
    <trip id="veh240" type="veh_passenger" depart="1614.61" departLane="best" from="-23979154#3" to="1163538707#1"/>
    <trip id="veh241" type="veh_passenger" depart="1621.34" departLane="best" from="-4810581#0" to="28008167#3"/>
    <trip id="veh242" type="veh_passenger" depart="1628.06" departLane="best" from="808536202#0" to="-79819328#1"/>
    <trip id="veh243" type="veh_passenger" depart="1634.79" departLane="best" from="28008222#2" to="-167121171#4"/>
    <trip id="veh244" type="veh_passenger" depart="1641.52" departLane="best" from="28008185#3" to="27929216#5"/>
    <trip id="veh245" type="veh_passenger" depart="1648.25" departLane="best" from="-200574632" to="4525210#8"/>
    <trip id="veh246" type="veh_passenger" depart="1654.97" departLane="best" from="4810626#4" to="23979154#3"/>
    <trip id="veh247" type="veh_passenger" depart="1661.70" departLane="best" from="27683089#27" to="-1005433650#0"/>
    <trip id="veh248" type="veh_passenger" depart="1668.43" departLane="best" from="-4575267#3" to="-631036139#0"/>
    <trip id="veh249" type="veh_passenger" depart="1675.16" departLane="best" departSpeed="max" from="1000824085" to="-780214#4"/>
    <trip id="veh251" type="veh_passenger" depart="1688.61" departLane="best" from="-27929275#7" to="4810580#1"/>
    <trip id="veh252" type="veh_passenger" depart="1695.34" departLane="best" from="28008219#6" to="1001067100#0"/>
    <trip id="veh253" type="veh_passenger" depart="1702.07" departLane="best" from="-4302843#0" to="818393761"/>
    <trip id="veh254" type="veh_passenger" depart="1708.79" departLane="best" from="4721529#2" to="4794842#4"/>
    <trip id="veh255" type="veh_passenger" depart="1715.52" departLane="best" from="-1290645110#0" to="1076644330#2"/>
    <trip id="veh258" type="veh_passenger" depart="1735.70" departLane="best" from="628628148" to="-4469144#0"/>
    <trip id="veh259" type="veh_passenger" depart="1742.43" departLane="best" from="1006440427#1" to="27683089#16"/>
    <trip id="veh260" type="veh_passenger" depart="1749.16" departLane="best" from="-79707626#1" to="-117960883#3"/>
    <trip id="veh261" type="veh_passenger" depart="1755.89" departLane="best" from="4810627#1" to="-86326091#9"/>
    <trip id="veh262" type="veh_passenger" depart="1762.61" departLane="best" from="-170130108#2" to="28156123#14"/>
    <trip id="veh263" type="veh_passenger" depart="1769.34" departLane="best" from="-1080366136#1" to="4516372#7"/>
    <trip id="veh264" type="veh_passenger" depart="1776.07" departLane="best" from="1128395118" to="4741123"/>
    <trip id="veh265" type="veh_passenger" depart="1782.80" departLane="best" from="-175291411#0" to="-28156123#14"/>
    <trip id="veh266" type="veh_passenger" depart="1789.52" departLane="best" from="28008207#0" to="-4810577#5"/>
    <trip id="veh268" type="veh_passenger" depart="1802.98" departLane="best" from="1290072193" to="-987276833#9"/>
    <trip id="veh269" type="veh_passenger" depart="1809.71" departLane="best" departSpeed="max" from="4375294" to="-4810629#4"/>
    <trip id="veh270" type="veh_passenger" depart="1816.43" departLane="best" from="-28008218#6" to="-4721529#2"/>
    <trip id="veh271" type="veh_passenger" depart="1823.16" departLane="best" from="4516374#3" to="-27683089#24"/>
    <trip id="veh272" type="veh_passenger" depart="1829.89" departLane="best" from="-28008185#3" to="-27683089#21"/>
    <trip id="veh273" type="veh_passenger" depart="1836.62" departLane="best" from="1290072194#5" to="-4516399#0"/>
    <trip id="veh274" type="veh_passenger" depart="1843.34" departLane="best" from="-86326093#2" to="1284150117#2"/>
    <trip id="veh275" type="veh_passenger" depart="1850.07" departLane="best" from="4741125#19" to="-196776972"/>
    <trip id="veh276" type="veh_passenger" depart="1856.80" departLane="best" from="28008207#1" to="-4302843#3"/>