<?xml version="1.0" encoding="UTF-8"?>

<!-- generated on 2024-12-03 15:15:03 by Eclipse SUMO netedit Version v1_21_0+1021-4606c0d7274
-->

<routes xmlns:xsi="http://www.w3.org/2001/XMLSchema-instance" xsi:noNamespaceSchemaLocation="http://sumo.dlr.de/xsd/routes_file.xsd">
    <!-- VTypes -->
    <vType id="veh_emergency" vClass="emergency" color="white"/>
    <vType id="veh_passenger" vClass="passenger"/>
    <!-- Vehicles, persons and containers (sorted by depart) -->
    <trip id="veh0" type="veh_passenger" depart="0.00" departLane="best" from="27930285#18" to="1001052089#2"/>
    <trip id="veh1" type="veh_passenger" depart="5.62" departLane="best" from="-4741115#2" to="-332193350#0"/>
    <trip id="veh2" type="veh_passenger" depart="11.24" departLane="best" from="4302843#4" to="28008167#5"/>
    <trip id="veh4" type="veh_passenger" depart="22.48" departLane="best" from="-28156123#11" to="1241211961#0"/>
    <trip id="veh5" type="veh_passenger" depart="28.09" departLane="best" from="117960883#0" to="-28008216#3"/>
    <trip id="veh6" type="veh_passenger" depart="33.71" departLane="best" from="27930596#14" to="-144174796#0"/>
    <trip id="veh7" type="veh_passenger" depart="39.33" departLane="best" from="-28156123#16" to="156465747#1"/>
    <trip id="veh9" type="veh_passenger" depart="50.57" departLane="best" from="628628148" to="27930616#2"/>
    <trip id="veh10" type="veh_passenger" depart="56.19" departLane="best" from="808525251#2" to="-5008405"/>
    <trip id="veh11" type="veh_passenger" depart="61.81" departLane="best" from="-175291411#2" to="-187325485#3"/>
    <trip id="veh12" type="veh_passenger" depart="67.43" departLane="best" from="-4810589#1" to="27683075#12"/>
    <trip id="veh13" type="veh_passenger" depart="73.04" departLane="best" from="1290645106#1" to="-86326091#3"/>
    <trip id="veh14" type="veh_passenger" depart="78.66" departLane="best" from="-79707628#11" to="154979769#2"/>
    <trip id="veh15" type="veh_passenger" depart="84.28" departLane="best" from="-4810577#2" to="-27683097#0"/>
    <trip id="veh16" type="veh_passenger" depart="89.90" departLane="best" from="5008205#2" to="-172545298#0"/>
    <trip id="veh17" type="veh_passenger" depart="95.52" departLane="best" from="28008219#20" to="1279205443#0"/>
    <trip id="veh19" type="veh_passenger" depart="106.76" departLane="best" from="-196776973#2" to="-4741117#7"/>
    <trip id="veh20" type="veh_passenger" depart="112.38" departLane="best" from="-27929296#1" to="746502333#1"/>
    <trip id="veh21" type="veh_passenger" depart="118.00" departLane="best" from="780336#6" to="-28008220#11"/>
    <trip id="veh22" type="veh_passenger" depart="123.61" departLane="best" from="27930596#10" to="27683089#16"/>
    <trip id="veh23" type="veh_passenger" depart="129.23" departLane="best" from="27930623#10" to="-4302843#5"/>
    <trip id="veh24" type="veh_passenger" depart="134.85" departLane="best" from="-165420771#1" to="28008182#9"/>
    <trip id="veh26" type="veh_passenger" depart="146.09" departLane="best" from="4353079#0" to="-1204821212#6"/>
    <trip id="veh28" type="veh_passenger" depart="157.33" departLane="best" from="-28008220#19" to="8056015#0"/>
    <trip id="veh29" type="veh_passenger" depart="162.95" departLane="best" from="613788731" to="-4810583#4"/>
    <trip id="veh30" type="veh_passenger" depart="168.57" departLane="best" from="27930620#12" to="-79819328#4"/>
    <trip id="veh31" type="veh_passenger" depart="174.18" departLane="best" from="79707609#1" to="-1006440425#1"/>
    <trip id="veh34" type="veh_passenger" depart="191.04" departLane="best" from="175290823#1" to="-702738549#1"/>
    <trip id="veh35" type="veh_passenger" depart="196.66" departLane="best" from="-79824393#3" to="-28156123#10"/>
    <trip id="veh36" type="veh_passenger" depart="202.28" departLane="best" from="-175290823#1" to="1283708455"/>
    <trip id="veh37" type="veh_passenger" depart="207.90" departLane="best" from="-254846268" to="-27929270#3"/>
    <trip id="veh38" type="veh_passenger" depart="213.52" departLane="best" from="1290072194#7" to="79707628#16"/>
    <trip id="veh39" type="veh_passenger" depart="219.13" departLane="best" from="987276833#6" to="1286563759#8"/>
    <trip id="veh40" type="veh_passenger" depart="224.75" departLane="best" from="86326091#1" to="555527550#0"/>
    <trip id="veh41" type="veh_passenger" depart="230.37" departLane="best" from="1006432267#1" to="28156123#5"/>
    <trip id="veh42" type="veh_passenger" depart="235.99" departLane="best" from="-28008172#1" to="-1290072194#2"/>
    <trip id="veh44" type="veh_passenger" depart="247.23" departLane="best" from="-27681444#4" to="1001067100#2"/>
    <trip id="veh45" type="veh_passenger" depart="252.85" departLane="best" from="-254846268" to="808525248#3"/>
    <trip id="veh47" type="veh_passenger" depart="264.09" departLane="best" from="1241211927#1" to="-28006151#2"/>
    <trip id="veh48" type="veh_passenger" depart="269.70" departLane="best" from="783634#1" to="555566893#1"/>
    <trip id="veh49" type="veh_passenger" depart="275.32" departLane="best" from="-4810576#9" to="27930286#10"/>
    <trip id="veh50" type="veh_passenger" depart="280.94" departLane="best" from="27683075#3" to="27930596#2"/>
    <trip id="veh51" type="veh_passenger" depart="286.56" departLane="best" from="-4516372#0" to="-1290072194#6"/>
    <trip id="veh52" type="veh_passenger" depart="292.18" departLane="best" from="-4525210#7" to="-1286571609#1"/>
    <trip id="veh53" type="veh_passenger" depart="297.80" departLane="best" from="-1001048839#1" to="-4810626#2"/>
    <trip id="veh54" type="veh_passenger" depart="303.42" departLane="best" from="-1069076529#0" to="79710862#2"/>
    <trip id="veh55" type="veh_passenger" depart="309.04" departLane="best" from="-4810579#2" to="-1290072193"/>
    <trip id="veh56" type="veh_passenger" depart="314.65" departLane="best" from="-1255276395#0" to="8057870#16"/>
    <trip id="veh58" type="veh_passenger" depart="325.89" departLane="best" from="1290645106#1" to="-4516374#6"/>
    <trip id="veh59" type="veh_passenger" depart="331.51" departLane="best" from="4516374#1" to="27683105#2"/>
    <trip id="veh61" type="veh_passenger" depart="342.75" departLane="best" from="987276834#7" to="-28008220#19"/>
    <trip id="veh62" type="veh_passenger" depart="348.37" departLane="best" from="-1336569593#1" to="4316771#2"/>
    <trip id="veh63" type="veh_passenger" depart="353.99" departLane="best" from="-28008218#2" to="4810581#2"/>
    <trip id="veh64" type="veh_passenger" depart="359.61" departLane="best" from="-987276833#17" to="27930616#3"/>
    <trip id="veh65" type="veh_passenger" depart="365.22" departLane="best" from="1001067102#0" to="1276582199#3"/>
    <trip id="veh66" type="veh_passenger" depart="370.84" departLane="best" from="27683089#29" to="-4302843#2"/>
    <trip id="veh67" type="veh_passenger" depart="376.46" departLane="best" from="-555566891#3" to="187325485#6"/>
    <trip id="veh68" type="veh_passenger" depart="382.08" departLane="best" from="-4353079#2" to="-28156123#12"/>
    <trip id="veh69" type="veh_passenger" depart="387.70" departLane="best" from="-165420771#0" to="27929275#7"/>
    <trip id="veh70" type="veh_passenger" depart="393.32" departLane="best" from="4353079#0" to="746502334#5"/>
    <trip id="veh71" type="veh_passenger" depart="398.94" departLane="best" from="489138126#1" to="165420760#1"/>
    <trip id="veh72" type="veh_passenger" depart="404.56" departLane="best" from="4422127#12" to="27930625#10"/>
    <trip id="veh73" type="veh_passenger" depart="410.18" departLane="best" from="-28008222#1" to="-27929270#0"/>
    <trip id="veh74" type="veh_passenger" depart="415.79" departLane="best" from="79819328#0" to="168319673#2"/>
    <trip id="veh75" type="veh_passenger" depart="421.41" departLane="best" from="-1037317917#6" to="4721530#12"/>
    <trip id="veh77" type="veh_passenger" depart="432.65" departLane="best" from="-187325485#4" to="1001048841#3"/>
    <trip id="veh78" type="veh_passenger" depart="438.27" departLane="best" from="-987276834#8" to="1035470064#1"/>
    <trip id="veh79" type="veh_passenger" depart="443.89" departLane="best" departSpeed="max" from="377315375" to="28006151#3"/>
    <trip id="veh80" type="veh_passenger" depart="449.51" departLane="best" from="-951509955#0" to="187325485#5"/>
    <trip id="veh81" type="veh_passenger" depart="455.13" departLane="best" from="5008205#2" to="4516372#5"/>
    <trip id="veh82" type="veh_passenger" depart="460.74" departLane="best" from="-28008182#9" to="1005337074#1"/>
    <trip id="veh83" type="veh_passenger" depart="466.36" departLane="best" from="987276834#1" to="-4741123"/>
    <trip id="veh84" type="veh_passenger" depart="471.98" departLane="best" from="4516374#3" to="79707628#21"/>
    <trip id="veh85" type="veh_passenger" depart="477.60" departLane="best" from="-1003177677#0" to="555527550#1"/>
    <trip id="veh86" type="veh_passenger" depart="483.22" departLane="best" from="154979768#1" to="1286258899#2"/>
    <trip id="veh87" type="veh_passenger" depart="488.84" departLane="best" from="987276834#8" to="4810584#15"/>
    <trip id="veh88" type="veh_passenger" depart="494.46" departLane="best" from="83299924#3" to="79708053#5"/>
    <trip id="veh89" type="veh_passenger" depart="500.08" departLane="best" from="-4810589#3" to="27930621#26"/>
    <trip id="veh90" type="veh_passenger" depart="505.70" departLane="best" from="1076644331" to="28008220#3"/>
    <trip id="veh91" type="veh_passenger" depart="511.31" departLane="best" from="-8056015#4" to="-1290072194#0"/>
    <trip id="veh92" type="veh_passenger" depart="516.93" departLane="best" from="-79707628#13" to="965084433#0"/>
    <trip id="veh94" type="veh_passenger" depart="528.17" departLane="best" from="-1006421040#0" to="-987276833#9"/>
    <trip id="veh95" type="veh_passenger" depart="533.79" departLane="best" from="808525251#2" to="987276833#2"/>
    <trip id="veh96" type="veh_passenger" depart="539.41" departLane="best" from="4759427#0" to="28156123#12"/>
    <trip id="veh97" type="veh_passenger" depart="545.03" departLane="best" from="-27930616#2" to="-4810575#6"/>
    <trip id="veh98" type="veh_passenger" depart="550.65" departLane="best" from="83299924#3" to="175289882#2"/>
    <trip id="veh99" type="veh_passenger" depart="556.26" departLane="best" departSpeed="max" from="149227836#0" to="-4422127#3"/>
    <trip id="veh100" type="veh_passenger" depart="561.88" departLane="best" from="-1289609186" to="187325485#1"/>
    <trip id="veh101" type="veh_passenger" depart="567.50" departLane="best" from="-1241211927#4" to="4848962"/>
    <trip id="veh102" type="veh_passenger" depart="573.12" departLane="best" from="-27930620#16" to="808536205#0"/>
    <trip id="veh104" type="veh_passenger" depart="584.36" departLane="best" from="196776972" to="28008167#2"/>
    <trip id="veh105" type="veh_passenger" depart="589.98" departLane="best" from="-4422126#1" to="-27683089#24"/>
    <trip id="veh106" type="veh_passenger" depart="595.60" departLane="best" from="671967031#12" to="-4469144#9"/>
    <trip id="veh107" type="veh_passenger" depart="601.22" departLane="best" from="191973555#1" to="-27683097#4"/>
    <trip id="veh108" type="veh_passenger" depart="606.83" departLane="best" from="-987276833#17" to="187325485#1"/>
    <trip id="veh109" type="veh_passenger" depart="612.45" departLane="best" from="-1286563759#0" to="-79819327#0"/>
    <trip id="veh110" type="veh_passenger" depart="618.07" departLane="best" from="-28008219#13" to="28156120#2"/>
    <trip id="veh111" type="veh_passenger" depart="623.69" departLane="best" from="4422127#3" to="-79819328#4"/>
    <trip id="veh112" type="veh_passenger" depart="629.31" departLane="best" from="27930623#7" to="4810577#12"/>
    <trip id="veh113" type="veh_passenger" depart="634.93" departLane="best" from="-4810584#17" to="4469144#2"/>
    <trip id="veh114" type="veh_passenger" depart="640.55" departLane="best" from="167121171#0" to="-1006440424#2"/>
    <trip id="veh115" type="veh_passenger" depart="646.17" departLane="best" from="-167121171#10" to="-28008220#27"/>
    <trip id="veh117" type="veh_passenger" depart="657.40" departLane="best" from="780336#4" to="-27930620#12"/>
    <trip id="veh118" type="veh_passenger" depart="663.02" departLane="best" from="4810578#5" to="28008220#1"/>
    <trip id="veh119" type="veh_passenger" depart="668.64" departLane="best" from="-27930617#1" to="1006421040#0"/>
    <trip id="veh120" type="veh_passenger" depart="674.26" departLane="best" from="-27930621#25" to="-79819865#3"/>
    <trip id="veh121" type="veh_passenger" depart="679.88" departLane="best" from="-27929275#2" to="-27683075#8"/>
    <trip id="veh122" type="veh_passenger" depart="685.50" departLane="best" from="23979154#2" to="191973555#0"/>
    <trip id="veh123" type="veh_passenger" depart="691.12" departLane="best" from="-4721530#2" to="27683075#14"/>
    <trip id="veh124" type="veh_passenger" depart="696.74" departLane="best" from="28156120#2" to="28008218#9"/>
    <trip id="veh126" type="veh_passenger" depart="707.97" departLane="best" from="1128395118" to="746502334#5"/>
    <trip id="veh127" type="veh_passenger" depart="713.59" departLane="best" from="4810585#2" to="175290825"/>
    <trip id="veh128" type="veh_passenger" depart="719.21" departLane="best" from="987276834#8" to="-4741115#5"/>
    <trip id="veh129" type="veh_passenger" depart="724.83" departLane="best" from="-1001085502" to="4525210#7"/>
    <trip id="veh130" type="veh_passenger" depart="730.45" departLane="best" from="27930285#10" to="-4575267#1"/>
    <trip id="veh131" type="veh_passenger" depart="736.07" departLane="best" from="4353079#2" to="154979769#2"/>
    <trip id="veh132" type="veh_passenger" depart="741.69" departLane="best" departSpeed="max" from="1000824085" to="1006421041"/>
    <trip id="veh133" type="veh_passenger" depart="747.31" departLane="best" from="167121171#4" to="631036134#3"/>
    <trip id="veh135" type="veh_passenger" depart="758.54" departLane="best" from="-4810579#1" to="175291411#2"/>
    <trip id="veh136" type="veh_passenger" depart="764.16" departLane="best" from="-4810580#1" to="-702738549#14"/>
    <trip id="veh137" type="veh_passenger" depart="769.78" departLane="best" from="4741115#0" to="555527550#0"/>
    <trip id="veh138" type="veh_passenger" depart="775.40" departLane="best" from="4516374#2" to="-203227845#0"/>
    <trip id="veh139" type="veh_passenger" depart="781.02" departLane="best" from="-4525228#0" to="631036134#6"/>
    <trip id="veh140" type="veh_passenger" depart="786.64" departLane="best" from="86326117#3" to="27683100#0"/>
    <trip id="veh141" type="veh_passenger" depart="792.26" departLane="best" from="545451602#0" to="86326093#1"/>
    <trip id="veh142" type="veh_passenger" depart="797.88" departLane="best" departSpeed="max" from="4794840#0" to="-628628148"/>
    <trip id="veh143" type="veh_passenger" depart="803.49" departLane="best" from="-1080366137#1" to="4375293"/>
    <trip id="veh144" type="veh_passenger" depart="809.11" departLane="best" from="-5008205#0" to="4721530#16"/>
    <trip id="veh145" type="veh_passenger" depart="814.73" departLane="best" from="4741125#15" to="555566856"/>
    <trip id="veh148" type="veh_passenger" depart="831.59" departLane="best" from="555566898#0" to="-5008224#3"/>
    <trip id="veh149" type="veh_passenger" depart="837.21" departLane="best" from="370552714" to="4810576#10"/>
    <trip id="veh150" type="veh_passenger" depart="842.83" departLane="best" from="1006440424#1" to="-4810578#0"/>
    <trip id="veh151" type="veh_passenger" depart="848.44" departLane="best" from="-4721530#7" to="4316771#0"/>
    <trip id="veh152" type="veh_passenger" depart="854.06" departLane="best" from="-1080366136#0" to="-28008185#5"/>
    <trip id="veh153" type="veh_passenger" depart="859.68" departLane="best" from="4810651#0" to="555566856"/>
    <trip id="veh154" type="veh_passenger" depart="865.30" departLane="best" from="876658456#2" to="-1290072194#2"/>
    <trip id="veh155" type="veh_passenger" depart="870.92" departLane="best" from="79819865#3" to="27683075#8"/>
    <trip id="veh156" type="veh_passenger" depart="876.54" departLane="best" from="83299925#2" to="-28006151#1"/>
    <trip id="veh158" type="veh_passenger" depart="887.78" departLane="best" from="-23979207#1" to="1001067100#1"/>
    <trip id="veh159" type="veh_passenger" depart="893.40" departLane="best" departSpeed="max" from="377315375" to="-4810582#4"/>
    <trip id="veh160" type="veh_passenger" depart="899.01" departLane="best" from="27681444#0" to="1276582180"/>
    <trip id="veh161" type="veh_passenger" depart="904.63" departLane="best" from="79708055#3" to="172068741#0"/>
    <trip id="veh162" type="veh_passenger" depart="910.25" departLane="best" from="4516399#7" to="28008220#5"/>
    <trip id="veh163" type="veh_passenger" depart="915.87" departLane="best" from="-1001048840#1" to="79708053#1"/>
    <trip id="veh164" type="veh_passenger" depart="921.49" departLane="best" from="1311842160#0" to="28156123#15"/>
    <trip id="veh165" type="veh_passenger" depart="927.11" departLane="best" from="4353079#3" to="27930625#3"/>
    <trip id="veh166" type="veh_passenger" depart="932.73" departLane="best" from="-27930621#29" to="4810651#1"/>
    <trip id="veh167" type="veh_passenger" depart="938.35" departLane="best" from="28156123#12" to="4810577#12"/>
    <trip id="veh168" type="veh_passenger" depart="943.96" departLane="best" from="-4810580#3" to="-86326091#1"/>
    <trip id="veh169" type="veh_passenger" depart="949.58" departLane="best" from="-8056022" to="4810575#2"/>
    <trip id="veh170" type="veh_passenger" depart="955.20" departLane="best" from="79824262#0" to="28008170#2"/>
    <trip id="veh171" type="veh_passenger" depart="960.82" departLane="best" from="-4810577#18" to="154830384#0"/>
    <trip id="veh173" type="veh_passenger" depart="972.06" departLane="best" from="1001045461#0" to="175289882#3"/>
    <trip id="veh174" type="veh_passenger" depart="977.68" departLane="best" from="27930620#11" to="1035353261#1"/>
    <trip id="veh175" type="veh_passenger" depart="983.30" departLane="best" from="1002821859#1" to="28008220#3"/>
    <trip id="veh176" type="veh_passenger" depart="988.92" departLane="best" from="1066571689#0" to="702738549#4"/>
    <trip id="veh178" type="veh_passenger" depart="1000.15" departLane="best" from="-27929275#3" to="-5008210"/>
    <trip id="veh179" type="veh_passenger" depart="1005.77" departLane="best" from="-27930625#12" to="-4302843#2"/>
    <trip id="veh180" type="veh_passenger" depart="1011.39" departLane="best" from="-28008218#1" to="1080366136#1"/>
    <trip id="veh182" type="veh_passenger" depart="1022.63" departLane="best" from="-4810584#13" to="-167121171#0"/>
    <trip id="veh183" type="veh_passenger" depart="1028.25" departLane="best" from="1001039628#1" to="27929275#4"/>
    <trip id="veh184" type="veh_passenger" depart="1033.87" departLane="best" from="28008211#1" to="28008218#19"/>
    <trip id="veh185" type="veh_passenger" depart="1039.49" departLane="best" from="1204821212#13" to="-4469144#4"/>
    <trip id="veh186" type="veh_passenger" depart="1045.10" departLane="best" from="27930620#19" to="-1003177677#0"/>
    <trip id="veh187" type="veh_passenger" depart="1050.72" departLane="best" from="4422125#2" to="4525210#1"/>
    <trip id="veh188" type="veh_passenger" depart="1056.34" departLane="best" from="23979154#0" to="-987276834#8"/>
    <trip id="veh189" type="veh_passenger" depart="1061.96" departLane="best" from="-27930625#3" to="808525251#3"/>
    <trip id="veh190" type="veh_passenger" depart="1067.58" departLane="best" from="-1279205443#2" to="-1286214012#3"/>
    <trip id="veh191" type="veh_passenger" depart="1073.20" departLane="best" from="4516374#1" to="4810629#7"/>
    <trip id="veh193" type="veh_passenger" depart="1084.44" departLane="best" from="-27930621#42" to="987276830#2"/>
    <trip id="veh194" type="veh_passenger" depart="1090.05" departLane="best" from="-196776972" to="808525246#2"/>
    <trip id="veh195" type="veh_passenger" depart="1095.67" departLane="best" from="671967031#17" to="27683089#28"/>
    <trip id="veh196" type="veh_passenger" depart="1101.29" departLane="best" from="28156123#11" to="-1241211927#4"/>
    <trip id="veh197" type="veh_passenger" depart="1106.91" departLane="best" from="-4810577#5" to="154830384#0"/>
    <trip id="veh198" type="veh_passenger" depart="1112.53" departLane="best" from="693555192#0" to="4422126#0"/>
    <trip id="veh199" type="veh_passenger" depart="1118.15" departLane="best" from="1067005198#0" to="-4525228#0"/>
    <trip id="veh200" type="veh_passenger" depart="1123.77" departLane="best" from="-4516372#5" to="27930285#8"/>
    <trip id="veh201" type="veh_passenger" depart="1129.39" departLane="best" from="4516374#1" to="1279205443#0"/>
    <trip id="veh203" type="veh_passenger" depart="1140.62" departLane="best" from="-4721530#16" to="-4810585#2"/>
    <trip id="veh204" type="veh_passenger" depart="1146.24" departLane="best" from="-135920189#1" to="-27929347"/>
    <trip id="veh205" type="veh_passenger" depart="1151.86" departLane="best" from="-4353079#3" to="28008216#3"/>
    <trip id="veh206" type="veh_passenger" depart="1157.48" departLane="best" from="86326091#11" to="-1001039629#0"/>
    <trip id="veh207" type="veh_passenger" depart="1163.10" departLane="best" from="-965084433#0" to="-28008219#21"/>
    <trip id="veh208" type="veh_passenger" depart="1168.72" departLane="best" from="987276833#6" to="746502334#3"/>
    <trip id="veh209" type="veh_passenger" depart="1174.34" departLane="best" from="175290823#0" to="28008218#14"/>
    <trip id="veh210" type="veh_passenger" depart="1179.96" departLane="best" from="-79707628#2" to="-1005433650#0"/>
    <trip id="veh211" type="veh_passenger" depart="1185.57" departLane="best" from="-671967031#5" to="-4469144#7"/>
    <trip id="veh212" type="veh_passenger" depart="1191.19" departLane="best" from="4810627#5" to="808525248#3"/>
    <trip id="veh213" type="veh_passenger" depart="1196.81" departLane="best" from="-987276833#16" to="-4422127#2"/>
    <trip id="veh214" type="veh_passenger" depart="1202.43" departLane="best" departSpeed="max" from="149227836#0" to="27681444#3"/>
    <trip id="veh215" type="veh_passenger" depart="1208.05" departLane="best" from="1035353261#1" to="27683100#2"/>
    <trip id="veh216" type="veh_passenger" depart="1213.67" departLane="best" from="27683097#0" to="-117960883#0"/>
    <trip id="veh217" type="veh_passenger" depart="1219.29" departLane="best" from="-79819328#4" to="167121174#0"/>
    <trip id="veh218" type="veh_passenger" depart="1224.91" departLane="best" from="117960883#1" to="27930287#1"/>
    <trip id="veh219" type="veh_passenger" depart="1230.53" departLane="best" from="-27929275#5" to="-1006440429#1"/>
    <trip id="veh220" type="veh_passenger" depart="1236.14" departLane="best" from="-28008220#24" to="-4810627#4"/>
    <trip id="veh221" type="veh_passenger" depart="1241.76" departLane="best" from="4469144#7" to="-79707626#4"/>
    <trip id="veh223" type="veh_passenger" depart="1253.00" departLane="best" from="-1069076529#0" to="-1290072194#6"/>
    <trip id="veh226" type="veh_passenger" depart="1269.86" departLane="best" from="27930596#7" to="-4469144#8"/>
    <trip id="veh227" type="veh_passenger" depart="1275.48" departLane="best" from="808525246#0" to="-28008216#4"/>
    <trip id="veh228" type="veh_passenger" depart="1281.10" departLane="best" from="-1069076529#2" to="-27930596#15"/>
    <trip id="veh229" type="veh_passenger" depart="1286.71" departLane="best" from="167121171#11" to="-28156120#2"/>
    <trip id="veh230" type="veh_passenger" depart="1292.33" departLane="best" from="-28008218#18" to="4524775#7"/>
    <trip id="veh231" type="veh_passenger" depart="1297.95" departLane="best" from="-27930621#36" to="-27683075#9"/>
    <trip id="veh232" type="veh_passenger" depart="1303.57" departLane="best" departSpeed="max" from="4375294" to="27683075#6"/>
    <trip id="veh233" type="veh_passenger" depart="1309.19" departLane="best" from="-23979207#0" to="1163538707#1"/>
    <trip id="veh234" type="veh_passenger" depart="1314.81" departLane="best" from="4810582#4" to="28008170#2"/>
    <trip id="veh235" type="veh_passenger" depart="1320.43" departLane="best" from="808525251#3" to="-79819330#1"/>
    <trip id="veh237" type="veh_passenger" depart="1331.66" departLane="best" from="28008185#5" to="-27929270#2"/>
    <trip id="veh238" type="veh_passenger" depart="1337.28" departLane="best" from="-200899063" to="4525228#0"/>
    <trip id="veh239" type="veh_passenger" depart="1342.90" departLane="best" from="4810626#2" to="23979207#1"/>
    <trip id="veh240" type="veh_passenger" depart="1348.52" departLane="best" from="27683089#29" to="-1005433650#0"/>
    <trip id="veh241" type="veh_passenger" depart="1354.14" departLane="best" from="4575267#1" to="-656839053#1"/>
    <trip id="veh242" type="veh_passenger" depart="1359.76" departLane="best" departSpeed="max" from="1000824085" to="-780336#3"/>
    <trip id="veh244" type="veh_passenger" depart="1371.00" departLane="best" from="-23914332" to="808536205#0"/>
    <trip id="veh245" type="veh_passenger" depart="1376.62" departLane="best" from="-27929296#1" to="4810580#1"/>
    <trip id="veh246" type="veh_passenger" depart="1382.23" departLane="best" from="-28008220#1" to="1001067102#0"/>
    <trip id="veh247" type="veh_passenger" depart="1387.85" departLane="best" from="-4302843#0" to="818393761"/>
    <trip id="veh248" type="veh_passenger" depart="1393.47" departLane="best" from="-4721530#12" to="4794842#4"/>
    <trip id="veh249" type="veh_passenger" depart="1399.09" departLane="best" from="1311842160#0" to="1076644331"/>
    <trip id="veh250" type="veh_passenger" depart="1404.71" departLane="best" from="1001067100#0" to="4316771#4"/>
    <trip id="veh251" type="veh_passenger" depart="1410.33" departLane="best" from="4721529#2" to="4810758#1"/>
    <trip id="veh253" type="veh_passenger" depart="1421.57" departLane="best" from="628628140#3" to="4469144#2"/>
    <trip id="veh254" type="veh_passenger" depart="1427.18" departLane="best" from="1006536034" to="-27683089#21"/>
    <trip id="veh255" type="veh_passenger" depart="1432.80" departLane="best" from="4810626#4" to="28008167#3"/>
    <trip id="veh256" type="veh_passenger" depart="1438.42" departLane="best" from="628628148" to="628628140#2"/>
    <trip id="veh257" type="veh_passenger" depart="1444.04" departLane="best" from="28008218#22" to="-4741115#3"/>
    <trip id="veh259" type="veh_passenger" depart="1455.28" departLane="best" from="1128395118" to="-4516374#0"/>
    <trip id="veh260" type="veh_passenger" depart="1460.90" departLane="best" from="28008185#5" to="27930596#14"/>
    <trip id="veh261" type="veh_passenger" depart="1466.52" departLane="best" from="117960883#1" to="4741125#1"/>
    <trip id="veh262" type="veh_passenger" depart="1472.14" departLane="best" from="-187325485#0" to="-28156123#16"/>
    <trip id="veh263" type="veh_passenger" depart="1477.75" departLane="best" from="28008209" to="-4810578#2"/>
    <trip id="veh265" type="veh_passenger" depart="1488.99" departLane="best" from="1290072194#1" to="-987276834#8"/>
    <trip id="veh266" type="veh_passenger" depart="1494.61" departLane="best" from="4516374#6" to="-27683089#27"/>
    <trip id="veh267" type="veh_passenger" depart="1500.23" departLane="best" from="-28008207#0" to="-27683089#22"/>
    <trip id="veh268" type="veh_passenger" depart="1505.85" departLane="best" from="1290072194#7" to="-4516399#2"/>
    <trip id="veh269" type="veh_passenger" depart="1511.47" departLane="best" from="-28008179#1" to="-28019565"/>
    <trip id="veh270" type="veh_passenger" depart="1517.09" departLane="best" from="-86326093#2" to="1286214012#1"/>
    <trip id="veh271" type="veh_passenger" depart="1522.71" departLane="best" from="4741125#6" to="-196776972"/>
    <trip id="veh272" type="veh_passenger" depart="1528.32" departLane="best" from="-28008211#1" to="4316771#0"/>
    <trip id="veh273" type="veh_passenger" depart="1533.94" departLane="best" from="1290072194#5" to="-4721530#5"/>
    <trip id="veh274" type="veh_passenger" depart="1539.56" departLane="best" from="86326091#6" to="156465747#1"/>
    <trip id="veh275" type="veh_passenger" depart="1545.18" departLane="best" from="28008216#3" to="-27683097#6"/>
    <trip id="veh276" type="veh_passenger" depart="1550.80" departLane="best" from="-555566891#0" to="118391139"/>
    <trip id="veh277" type="veh_passenger" depart="1556.42" departLane="best" from="555566893#1" to="171629747#0"/>
    <trip id="veh279" type="veh_passenger" depart="1567.66" departLane="best" from="28008177#0" to="1286258899#5"/>
    <trip id="veh280" type="veh_passenger" depart="1573.27" departLane="best" from="79824264#0" to="-1074295407#1"/>
    <trip id="veh281" type="veh_passenger" depart="1578.89" departLane="best" from="4810575#2" to="79824393#2"/>
    <trip id="veh282" type="veh_passenger" depart="1584.51" departLane="best" departSpeed="max" from="167121167" to="-4810577#4"/>
    <trip id="veh283" type="veh_passenger" depart="1590.13" departLane="best" from="-4516372#6" to="27683075#7"/>
    <trip id="veh284" type="veh_passenger" depart="1595.75" departLane="best" from="-4721530#0" to="-4302843#3"/>
    <trip id="veh285" type="veh_passenger" depart="1601.37" departLane="best" from="-1286258899#5" to="1006416224#1"/>
    <trip id="veh286" type="veh_passenger" depart="1606.99" departLane="best" from="1002821859#2" to="545451602#2"/>
    <trip id="veh287" type="veh_passenger" depart="1612.61" departLane="best" from="987276831#10" to="-4810578#0"/>
    <trip id="veh288" type="veh_passenger" depart="1618.23" departLane="best" from="4353079#1" to="8057870#4"/>
    <trip id="veh289" type="veh_passenger" depart="1623.84" departLane="best" from="-1001048842#0" to="1006416224#1"/>