<?xml version="1.0" encoding="UTF-8"?>

<!-- generated on 2025-02-21 16:35:24.972794 by randomTrips.py v1_21_0+1021-4606c0d7274
<configuration>
    <net-file value="osm.net.xml.gz"/>
    <output-trip-file value="osm.high_traffic.passenger.trips.xml"/>
    <route-file value="osm.high_traffic.passenger.rou.xml"/>
    <prefix value="veh"/>
    <trip-attributes value="departLane=&quot;best&quot;"/>
    <fringe-start-attributes value="departSpeed=&quot;max&quot;"/>
    <vehicle-class value="passenger"/>
    <lanes value="True"/>
    <fringe-factor value="6"/>
    <allow-fringe.min-length value="1000.0"/>
    <via-edge-types value="highway.motorway,highway.motorway_link,highway.trunk_link,highway.primary_link,highway.secondary_link,highway.tertiary_link"/>
    <min-distance value="300.0"/>
    <min-distance.fringe value="10.0"/>
    <remove-loops value="True"/>
    <validate value="True"/>
    <insertion-density value="15.0"/>
</configuration>
-->

<!-- generated on 2025-02-21 16:35:24 by Eclipse SUMO duarouter Version v1_21_0+1021-4606c0d7274
<duarouterConfiguration xmlns:xsi="http://www.w3.org/2001/XMLSchema-instance" xsi:noNamespaceSchemaLocation="http://sumo.dlr.de/xsd/duarouterConfiguration.xsd">

    <input>
        <net-file value="osm.net.xml.gz"/>
        <route-files value="osm.high_traffic.passenger.trips.xml"/>
    </input>

    <output>
        <output-file value="osm.high_traffic.passenger.trips.xml.tmp"/>
        <alternatives-output value="NUL"/>
        <write-trips value="true"/>
    </output>

    <processing>
        <remove-loops value="true"/>
    </processing>

    <time>
        <begin value="0.0"/>
        <end value="3600.0"/>
    </time>

    <report>
        <no-warnings value="true"/>
        <ignore-errors value="true"/>
        <no-step-log value="true"/>
    </report>

</duarouterConfiguration>
-->

<routes xmlns:xsi="http://www.w3.org/2001/XMLSchema-instance" xsi:noNamespaceSchemaLocation="http://sumo.dlr.de/xsd/routes_file.xsd">
    <vType id="veh_passenger" vClass="passenger"/>
    <trip id="veh0" type="veh_passenger" depart="0.00" departLane="best" from="-27930285#4" to="1001052089#2"/>
    <trip id="veh1" type="veh_passenger" depart="4.49" departLane="best" from="-4741117#7" to="-4302843#0"/>
    <trip id="veh2" type="veh_passenger" depart="8.97" departLane="best" from="4302843#4" to="28008172#1"/>
    <trip id="veh3" type="veh_passenger" depart="13.46" departLane="best" from="671967031#17" to="-172068741#0"/>
    <trip id="veh4" type="veh_passenger" depart="17.94" departLane="best" departSpeed="max" from="1000824085" to="-1204821212#11"/>
    <trip id="veh5" type="veh_passenger" depart="22.43" departLane="best" from="-28156123#15" to="1251326602#1"/>
    <trip id="veh6" type="veh_passenger" depart="26.91" departLane="best" from="117960883#0" to="28008218#1"/>
    <trip id="veh7" type="veh_passenger" depart="31.40" departLane="best" from="-27930596#2" to="145028552"/>
    <trip id="veh8" type="veh_passenger" depart="35.88" departLane="best" from="-28156123#6" to="191973555#1"/>
    <trip id="veh10" type="veh_passenger" depart="44.85" departLane="best" from="-631036134#4" to="27930617#1"/>
    <trip id="veh11" type="veh_passenger" depart="49.34" departLane="best" from="808525251#2" to="-555566891#0"/>
    <trip id="veh12" type="veh_passenger" depart="53.82" departLane="best" from="4810586#3" to="27683075#14"/>
    <trip id="veh13" type="veh_passenger" depart="58.31" departLane="best" from="4759427#0" to="4316771#5"/>
    <trip id="veh14" type="veh_passenger" depart="62.79" departLane="best" from="1301088630" to="86326091#3"/>
    <trip id="veh15" type="veh_passenger" depart="67.28" departLane="best" from="-79707628#21" to="156465747#1"/>
    <trip id="veh16" type="veh_passenger" depart="71.76" departLane="best" from="-4810577#18" to="-27683097#5"/>
    <trip id="veh17" type="veh_passenger" depart="76.25" departLane="best" from="5008205#0" to="172545612#1"/>
    <trip id="veh18" type="veh_passenger" depart="80.73" departLane="best" from="28008219#5" to="1279205443#1"/>
    <trip id="veh19" type="veh_passenger" depart="85.22" departLane="best" from="-4353079#1" to="-4810281#1"/>
    <trip id="veh21" type="veh_passenger" depart="94.19" departLane="best" from="-200899063" to="-4741125#1"/>
    <trip id="veh22" type="veh_passenger" depart="98.67" departLane="best" from="-27930285#0" to="-746502334#6"/>
    <trip id="veh23" type="veh_passenger" depart="103.16" departLane="best" from="-4721530#0" to="79819328#2"/>
    <trip id="veh24" type="veh_passenger" depart="107.64" departLane="best" from="-27930596#12" to="27683089#21"/>
    <trip id="veh25" type="veh_passenger" depart="112.13" departLane="best" from="27930623#17" to="4316771#3"/>
    <trip id="veh26" type="veh_passenger" depart="116.61" departLane="best" from="-27930621#17" to="79707628#16"/>
    <trip id="veh27" type="veh_passenger" depart="121.10" departLane="best" from="167121164" to="28008185#3"/>
    <trip id="veh29" type="veh_passenger" depart="130.07" departLane="best" from="-4353079#2" to="-1204821212#7"/>
    <trip id="veh30" type="veh_passenger" depart="134.55" departLane="best" from="4810584#4" to="-4721529#1"/>
    <trip id="veh31" type="veh_passenger" depart="139.04" departLane="best" from="-28008220#27" to="79824393#4"/>
    <trip id="veh32" type="veh_passenger" depart="143.52" departLane="best" from="613788730" to="-4810584#13"/>
    <trip id="veh33" type="veh_passenger" depart="148.01" departLane="best" from="27930620#19" to="-79819865#3"/>
    <trip id="veh34" type="veh_passenger" depart="152.49" departLane="best" from="79707604#0" to="-1006440429#1"/>
    <trip id="veh37" type="veh_passenger" depart="165.95" departLane="best" from="-175290823#2" to="-693555192#1"/>
    <trip id="veh38" type="veh_passenger" depart="170.43" departLane="best" from="4516399#2" to="-28156123#14"/>
    <trip id="veh39" type="veh_passenger" depart="174.92" departLane="best" from="-175290823#2" to="1284150117#0"/>
    <trip id="veh40" type="veh_passenger" depart="179.40" departLane="best" from="27681444#0" to="27929275#2"/>
    <trip id="veh41" type="veh_passenger" depart="183.89" departLane="best" from="1290072194#7" to="-79707628#3"/>
    <trip id="veh42" type="veh_passenger" depart="188.37" departLane="best" from="987276833#6" to="-1286571609#0"/>
    <trip id="veh43" type="veh_passenger" depart="192.86" departLane="best" from="86326091#1" to="555527550#0"/>
    <trip id="veh44" type="veh_passenger" depart="197.34" departLane="best" from="1006432267#1" to="4251234#0"/>
    <trip id="veh45" type="veh_passenger" depart="201.83" departLane="best" from="-28008177#0" to="-1290072194#3"/>
    <trip id="veh46" type="veh_passenger" depart="206.31" departLane="best" from="-4721529#2" to="27930286#9"/>
    <trip id="veh47" type="veh_passenger" depart="210.80" departLane="best" from="-27683075#13" to="1001067102#2"/>
    <trip id="veh48" type="veh_passenger" depart="215.28" departLane="best" from="-1006421040#2" to="808525248#3"/>
    <trip id="veh50" type="veh_passenger" depart="224.25" departLane="best" from="1241211927#4" to="-28006327"/>
    <trip id="veh51" type="veh_passenger" depart="228.74" departLane="best" from="780336#7" to="555566891#7"/>
    <trip id="veh52" type="veh_passenger" depart="233.22" departLane="best" from="-4810577#17" to="27930286#4"/>
    <trip id="veh53" type="veh_passenger" depart="237.71" departLane="best" from="27683075#4" to="27930596#6"/>
    <trip id="veh54" type="veh_passenger" depart="242.19" departLane="best" from="4469144#9" to="-1290072194#7"/>
    <trip id="veh55" type="veh_passenger" depart="246.68" departLane="best" from="-4525210#4" to="1287066365"/>
    <trip id="veh56" type="veh_passenger" depart="251.16" departLane="best" from="-1001048839#1" to="-4810627#1"/>
    <trip id="veh57" type="veh_passenger" depart="255.65" departLane="best" from="-1069076529#0" to="-79708059#0"/>
    <trip id="veh58" type="veh_passenger" depart="260.13" departLane="best" from="-4810580#4" to="-1290072193"/>
    <trip id="veh59" type="veh_passenger" depart="264.62" departLane="best" from="613788732" to="8057870#16"/>
    <trip id="veh61" type="veh_passenger" depart="273.59" departLane="best" from="-156465749#2" to="-4516399#0"/>
    <trip id="veh62" type="veh_passenger" depart="278.07" departLane="best" from="-4516372#7" to="27929143#1"/>
    <trip id="veh64" type="veh_passenger" depart="287.04" departLane="best" departSpeed="max" from="1000824085" to="-28008220#24"/>
    <trip id="veh65" type="veh_passenger" depart="291.53" departLane="best" from="144174796#1" to="4316771#5"/>
    <trip id="veh66" type="veh_passenger" depart="296.01" departLane="best" from="-28008218#6" to="-4810582#4"/>
    <trip id="veh67" type="veh_passenger" depart="300.50" departLane="best" from="-987276833#17" to="27930620#11"/>
    <trip id="veh68" type="veh_passenger" depart="304.98" departLane="best" from="1001067102#2" to="1278441846#0"/>
    <trip id="veh69" type="veh_passenger" depart="309.47" departLane="best" from="27683089#4" to="-4302843#3"/>
    <trip id="veh70" type="veh_passenger" depart="313.95" departLane="best" from="628628148" to="191973555#0"/>
    <trip id="veh71" type="veh_passenger" depart="318.44" departLane="best" from="-4353079#3" to="-28156123#16"/>
    <trip id="veh72" type="veh_passenger" depart="322.92" departLane="best" from="-165420771#1" to="-27929347"/>
    <trip id="veh73" type="veh_passenger" depart="327.41" departLane="best" from="4422127#5" to="27930625#3"/>
    <trip id="veh74" type="veh_passenger" depart="331.89" departLane="best" from="28156118" to="-27929270#2"/>
    <trip id="veh76" type="veh_passenger" depart="340.86" departLane="best" from="1067005198#1" to="4721530#14"/>
    <trip id="veh78" type="veh_passenger" depart="349.83" departLane="best" from="-187325485#5" to="1001067100#0"/>
    <trip id="veh79" type="veh_passenger" depart="354.32" departLane="best" departSpeed="max" from="1000824085" to="1037317917#3"/>
    <trip id="veh80" type="veh_passenger" depart="358.80" departLane="best" departSpeed="max" from="377315375" to="28008167#1"/>
    <trip id="veh81" type="veh_passenger" depart="363.29" departLane="best" from="931013#2" to="187325485#6"/>
    <trip id="veh82" type="veh_passenger" depart="367.77" departLane="best" from="-8057870#4" to="555566891#8"/>
    <trip id="veh83" type="veh_passenger" depart="372.26" departLane="best" from="5008205#0" to="-4516374#1"/>
    <trip id="veh84" type="veh_passenger" depart="376.74" departLane="best" from="-28008185#3" to="1006421038#0"/>
    <trip id="veh85" type="veh_passenger" depart="381.23" departLane="best" departSpeed="max" from="1000824085" to="-4741125#10"/>
    <trip id="veh86" type="veh_passenger" depart="385.71" departLane="best" from="4516374#6" to="79707628#20"/>
    <trip id="veh87" type="veh_passenger" depart="390.20" departLane="best" from="154979769#2" to="1286258899#3"/>
    <trip id="veh88" type="veh_passenger" depart="394.68" departLane="best" from="987276834#8" to="4810584#17"/>
    <trip id="veh89" type="veh_passenger" depart="399.17" departLane="best" from="83299924#3" to="79708053#1"/>
    <trip id="veh90" type="veh_passenger" depart="403.65" departLane="best" from="-4810589#1" to="27930621#30"/>
    <trip id="veh91" type="veh_passenger" depart="408.14" departLane="best" from="1006428686#1" to="28008220#8"/>
    <trip id="veh92" type="veh_passenger" depart="412.62" departLane="best" from="-8057870#13" to="-1290072194#0"/>
    <trip id="veh93" type="veh_passenger" depart="417.11" departLane="best" from="-79707628#22" to="965084433#0"/>
    <trip id="veh95" type="veh_passenger" depart="426.08" departLane="best" from="1006428685#0" to="-987276834#8"/>
    <trip id="veh96" type="veh_passenger" depart="430.56" departLane="best" from="808525251#2" to="987276833#2"/>
    <trip id="veh97" type="veh_passenger" depart="435.05" departLane="best" from="-165420771#1" to="28156123#16"/>
    <trip id="veh98" type="veh_passenger" depart="439.53" departLane="best" from="-27930617#1" to="-4810576#5"/>
    <trip id="veh99" type="veh_passenger" depart="444.02" departLane="best" from="83299924#3" to="175290823#0"/>
    <trip id="veh100" type="veh_passenger" depart="448.50" departLane="best" departSpeed="max" from="149227836#0" to="-4422127#5"/>
    <trip id="veh101" type="veh_passenger" depart="452.99" departLane="best" from="1290072193" to="187325485#3"/>
    <trip id="veh103" type="veh_passenger" depart="461.96" departLane="best" from="-27930620#2" to="808536205#0"/>
    <trip id="veh105" type="veh_passenger" depart="470.93" departLane="best" from="196776972" to="28008167#5"/>
    <trip id="veh106" type="veh_passenger" depart="475.41" departLane="best" from="4422127#1" to="-27683089#27"/>
    <trip id="veh107" type="veh_passenger" depart="479.90" departLane="best" from="671967031#11" to="4516372#3"/>
    <trip id="veh108" type="veh_passenger" depart="484.38" departLane="best" from="196776972" to="27683100#0"/>
    <trip id="veh109" type="veh_passenger" depart="488.87" departLane="best" from="987276834#1" to="187325485#2"/>
    <trip id="veh110" type="veh_passenger" depart="493.35" departLane="best" from="-1286563759#8" to="-79819326#1"/>
    <trip id="veh111" type="veh_passenger" depart="497.84" departLane="best" from="4422127#6" to="-79819865#3"/>
    <trip id="veh112" type="veh_passenger" depart="502.32" departLane="best" from="27930625#10" to="4810577#17"/>
    <trip id="veh113" type="veh_passenger" depart="506.81" departLane="best" from="-167121171#10" to="-1006440428#0"/>
    <trip id="veh115" type="veh_passenger" depart="515.78" departLane="best" from="4810578#3" to="28008220#15"/>
    <trip id="veh116" type="veh_passenger" depart="520.26" departLane="best" from="27930620#11" to="1006421040#0"/>
    <trip id="veh117" type="veh_passenger" depart="524.75" departLane="best" from="-4810279#1" to="4810577#15"/>
    <trip id="veh118" type="veh_passenger" depart="529.23" departLane="best" from="-27930621#29" to="-79819865#2"/>
    <trip id="veh119" type="veh_passenger" depart="533.72" departLane="best" from="-27929275#4" to="-27683075#9"/>
    <trip id="veh120" type="veh_passenger" depart="538.20" departLane="best" from="-23979206#0" to="156465749#2"/>
    <trip id="veh121" type="veh_passenger" depart="542.69" departLane="best" from="-4721530#8" to="27683075#6"/>
    <trip id="veh123" type="veh_passenger" depart="551.66" departLane="best" from="-117960883#2" to="746502334#3"/>
    <trip id="veh124" type="veh_passenger" depart="556.14" departLane="best" from="4810584#7" to="175291411#0"/>
    <trip id="veh125" type="veh_passenger" depart="560.63" departLane="best" departSpeed="max" from="1000824085" to="-4741117#7"/>
    <trip id="veh126" type="veh_passenger" depart="565.11" departLane="best" from="-1001085502" to="4525210#9"/>
    <trip id="veh128" type="veh_passenger" depart="574.08" departLane="best" from="4353079#2" to="191973555#1"/>
    <trip id="veh129" type="veh_passenger" depart="578.57" departLane="best" from="1001045461#0" to="1006421041"/>
    <trip id="veh130" type="veh_passenger" depart="583.05" departLane="best" from="167121171#5" to="631036134#0"/>
    <trip id="veh132" type="veh_passenger" depart="592.02" departLane="best" from="4810578#5" to="187325485#1"/>
    <trip id="veh133" type="veh_passenger" depart="596.51" departLane="best" from="-4810581#2" to="-702738549#11"/>
    <trip id="veh134" type="veh_passenger" depart="600.99" departLane="best" from="-4721530#8" to="555527550#0"/>
    <trip id="veh135" type="veh_passenger" depart="605.48" departLane="best" from="702738549#1" to="-28008220#17"/>
    <trip id="veh136" type="veh_passenger" depart="609.96" departLane="best" from="-4516374#6" to="-223982979#1"/>
    <trip id="veh137" type="veh_passenger" depart="614.45" departLane="best" from="-4525210#9" to="631036134#4"/>
    <trip id="veh138" type="veh_passenger" depart="618.93" departLane="best" from="86326091#3" to="27683105#1"/>
    <trip id="veh139" type="veh_passenger" depart="623.42" departLane="best" from="-27930617#1" to="79710862#2"/>
    <trip id="veh140" type="veh_passenger" depart="627.90" departLane="best" from="5008224#3" to="86326093#1"/>
    <trip id="veh142" type="veh_passenger" depart="636.87" departLane="best" from="-1163538707#0" to="4375295"/>
    <trip id="veh143" type="veh_passenger" depart="641.36" departLane="best" from="5008224#2" to="79714512#1"/>
    <trip id="veh144" type="veh_passenger" depart="645.84" departLane="best" from="4741125#13" to="555566856"/>
    <trip id="veh147" type="veh_passenger" depart="659.30" departLane="best" from="555566893#1" to="-5008224#3"/>
    <trip id="veh148" type="veh_passenger" depart="663.78" departLane="best" from="4302843#2" to="-4810576#3"/>
    <trip id="veh149" type="veh_passenger" depart="668.27" departLane="best" from="1006440427#1" to="-4810578#4"/>
    <trip id="veh150" type="veh_passenger" depart="672.75" departLane="best" from="-4721530#5" to="4316771#4"/>
    <trip id="veh151" type="veh_passenger" depart="677.24" departLane="best" from="-1080366136#0" to="-28008209"/>
    <trip id="veh152" type="veh_passenger" depart="681.72" departLane="best" from="4810755#0" to="555566856"/>
    <trip id="veh153" type="veh_passenger" depart="686.21" departLane="best" from="27930286#1" to="-8056015#0"/>
    <trip id="veh154" type="veh_passenger" depart="690.69" departLane="best" from="876658456#1" to="-1290072194#3"/>
    <trip id="veh155" type="veh_passenger" depart="695.18" departLane="best" from="79819865#2" to="27683075#9"/>
    <trip id="veh156" type="veh_passenger" depart="699.66" departLane="best" from="83299925#2" to="-28006327"/>
    <trip id="veh158" type="veh_passenger" depart="708.63" departLane="best" from="-254846268" to="1001067102#1"/>
    <trip id="veh159" type="veh_passenger" depart="713.12" departLane="best" departSpeed="max" from="377315375" to="4810584#1"/>
    <trip id="veh160" type="veh_passenger" depart="717.60" departLane="best" from="27681444#2" to="1276582180"/>
    <trip id="veh161" type="veh_passenger" depart="722.09" departLane="best" from="-79710862#0" to="-172545298#1"/>
    <trip id="veh162" type="veh_passenger" depart="726.57" departLane="best" from="-4525210#6" to="28008222#2"/>
    <trip id="veh163" type="veh_passenger" depart="731.06" departLane="best" from="-1001048840#1" to="79707628#9"/>
    <trip id="veh164" type="veh_passenger" depart="735.54" departLane="best" from="-135920189#1" to="28156123#6"/>
    <trip id="veh165" type="veh_passenger" depart="740.03" departLane="best" from="4353079#3" to="28006151#1"/>
    <trip id="veh166" type="veh_passenger" depart="744.51" departLane="best" from="-27930621#31" to="-4810755#0"/>
    <trip id="veh167" type="veh_passenger" depart="749.00" departLane="best" from="28156123#16" to="4810577#17"/>
    <trip id="veh168" type="veh_passenger" depart="753.48" departLane="best" from="4810582#2" to="-86326091#3"/>
    <trip id="veh169" type="veh_passenger" depart="757.97" departLane="best" from="-8057870#4" to="-4810576#1"/>
    <trip id="veh170" type="veh_passenger" depart="762.45" departLane="best" from="79819865#4" to="28008172#2"/>
    <trip id="veh171" type="veh_passenger" depart="766.94" departLane="best" from="-4810577#4" to="154979765#1"/>
    <trip id="veh173" type="veh_passenger" depart="775.91" departLane="best" from="1001045463#0" to="175290823#2"/>
    <trip id="veh174" type="veh_passenger" depart="780.39" departLane="best" from="27930620#12" to="1035470064#1"/>
    <trip id="veh175" type="veh_passenger" depart="784.88" departLane="best" from="1005337064" to="28008220#8"/>
    <trip id="veh176" type="veh_passenger" depart="789.36" departLane="best" from="1067005198#3" to="702738549#3"/>
    <trip id="veh178" type="veh_passenger" depart="798.33" departLane="best" from="-27929275#4" to="-545451602#0"/>
    <trip id="veh179" type="veh_passenger" depart="802.82" departLane="best" from="27930625#2" to="-4302843#3"/>
    <trip id="veh180" type="veh_passenger" depart="807.30" departLane="best" from="-28008218#18" to="1080366137#1"/>
    <trip id="veh181" type="veh_passenger" depart="811.79" departLane="best" from="-4516372#3" to="-1074295407#1"/>
    <trip id="veh182" type="veh_passenger" depart="816.27" departLane="best" from="4810591#1" to="-167121171#10"/>
    <trip id="veh183" type="veh_passenger" depart="820.76" departLane="best" from="-987276829#1" to="27929275#7"/>
    <trip id="veh184" type="veh_passenger" depart="825.24" departLane="best" from="-28008212#3" to="28008218#6"/>
    <trip id="veh185" type="veh_passenger" depart="829.73" departLane="best" departSpeed="max" from="121174586" to="-4469144#7"/>
    <trip id="veh186" type="veh_passenger" depart="834.21" departLane="best" from="27930620#20" to="-1003177677#0"/>
    <trip id="veh187" type="veh_passenger" depart="838.70" departLane="best" from="4422125#1" to="4525210#6"/>
    <trip id="veh188" type="veh_passenger" depart="843.18" departLane="best" from="-23979154#3" to="1001045461#0"/>
    <trip id="veh189" type="veh_passenger" depart="847.67" departLane="best" from="-28006151#0" to="808525251#3"/>
    <trip id="veh190" type="veh_passenger" depart="852.15" departLane="best" from="4516374#5" to="4810651#0"/>
    <trip id="veh192" type="veh_passenger" depart="861.12" departLane="best" from="196776973#1" to="808525246#2"/>
    <trip id="veh193" type="veh_passenger" depart="865.61" departLane="best" from="671967031#14" to="27683089#4"/>
    <trip id="veh194" type="veh_passenger" depart="870.09" departLane="best" from="28156123#15" to="-1250952440#0"/>
    <trip id="veh195" type="veh_passenger" depart="874.58" departLane="best" from="-4810577#3" to="154979765#1"/>
    <trip id="veh196" type="veh_passenger" depart="879.06" departLane="best" from="-693555191#4" to="4422126#1"/>
    <trip id="veh197" type="veh_passenger" depart="883.55" departLane="best" from="1067005214#0" to="-4525228#3"/>
    <trip id="veh198" type="veh_passenger" depart="888.03" departLane="best" from="4516374#0" to="27930286#11"/>
    <trip id="veh199" type="veh_passenger" depart="892.52" departLane="best" from="-4516372#7" to="1279205443#1"/>
    <trip id="veh200" type="veh_passenger" depart="897.00" departLane="best" from="-27929143#2" to="-4741115#2"/>
    <trip id="veh202" type="veh_passenger" depart="905.97" departLane="best" from="-4721530#7" to="-4810589#1"/>
    <trip id="veh203" type="veh_passenger" depart="910.46" departLane="best" from="145028552" to="27930285#1"/>
    <trip id="veh204" type="veh_passenger" depart="914.94" departLane="best" from="4353083" to="28008218#14"/>
    <trip id="veh205" type="veh_passenger" depart="919.43" departLane="best" from="-28008220#11" to="1290645109#1"/>
    <trip id="veh206" type="veh_passenger" depart="923.91" departLane="best" from="86326091#6" to="1336569593#1"/>
    <trip id="veh207" type="veh_passenger" depart="928.40" departLane="best" from="-987276833#15" to="-28008219#6"/>
    <trip id="veh208" type="veh_passenger" depart="932.88" departLane="best" from="-987276834#3" to="746502334#0"/>
    <trip id="veh209" type="veh_passenger" depart="937.37" departLane="best" from="175290823#1" to="28008218#20"/>
    <trip id="veh210" type="veh_passenger" depart="941.85" departLane="best" from="4810651#0" to="4524775#5"/>
    <trip id="veh211" type="veh_passenger" depart="946.34" departLane="best" from="-79707628#7" to="-1005433650#0"/>
    <trip id="veh212" type="veh_passenger" depart="950.82" departLane="best" from="-671967035#2" to="-4469144#8"/>
    <trip id="veh213" type="veh_passenger" depart="955.31" departLane="best" from="4810627#2" to="808525248#3"/>
    <trip id="veh214" type="veh_passenger" depart="959.79" departLane="best" from="-987276834#1" to="-4422127#3"/>
    <trip id="veh215" type="veh_passenger" depart="964.28" departLane="best" from="154565321" to="27683075#13"/>
    <trip id="veh216" type="veh_passenger" depart="968.76" departLane="best" from="332193350#0" to="-28156123#14"/>
    <trip id="veh217" type="veh_passenger" depart="973.25" departLane="best" from="-555566891#3" to="28008182#10"/>
    <trip id="veh219" type="veh_passenger" depart="982.22" departLane="best" from="27683097#3" to="-117960883#2"/>
    <trip id="veh220" type="veh_passenger" depart="986.70" departLane="best" from="79819865#4" to="167121174#1"/>
    <trip id="veh221" type="veh_passenger" depart="991.19" departLane="best" from="117960883#1" to="-27930596#10"/>
    <trip id="veh222" type="veh_passenger" depart="995.67" departLane="best" from="-27929275#7" to="1035353261#0"/>
    <trip id="veh223" type="veh_passenger" depart="1000.16" departLane="best" from="-1286258899#3" to="79707628#15"/>
    <trip id="veh224" type="veh_passenger" depart="1004.64" departLane="best" from="-28008220#5" to="-4810629#3"/>
    <trip id="veh225" type="veh_passenger" depart="1009.13" departLane="best" from="4469144#6" to="79707628#16"/>
    <trip id="veh227" type="veh_passenger" depart="1018.10" departLane="best" from="-1069076529#0" to="-1290072194#7"/>
    <trip id="veh229" type="veh_passenger" depart="1027.07" departLane="best" from="-27930596#3" to="4721529#0"/>
    <trip id="veh230" type="veh_passenger" depart="1031.56" departLane="best" from="27930596#9" to="4516372#0"/>
    <trip id="veh231" type="veh_passenger" depart="1036.04" departLane="best" from="808525246#0" to="28008218#10"/>
    <trip id="veh232" type="veh_passenger" depart="1040.53" departLane="best" from="-1069076529#2" to="-27930596#3"/>
    <trip id="veh233" type="veh_passenger" depart="1045.01" departLane="best" from="-28008218#20" to="4524775#8"/>
    <trip id="veh234" type="veh_passenger" depart="1049.50" departLane="best" from="-27930621#41" to="27683089#11"/>
    <trip id="veh235" type="veh_passenger" depart="1053.98" departLane="best" departSpeed="max" from="4375294" to="27683075#7"/>
    <trip id="veh236" type="veh_passenger" depart="1058.47" departLane="best" from="-4810575#0" to="818393760"/>
    <trip id="veh237" type="veh_passenger" depart="1062.95" departLane="best" from="-23979207#1" to="1163538707#2"/>
    <trip id="veh238" type="veh_passenger" depart="1067.44" departLane="best" from="-4810583#5" to="28008172#2"/>
    <trip id="veh239" type="veh_passenger" depart="1071.92" departLane="best" from="808525251#3" to="1278761261#1"/>
    <trip id="veh240" type="veh_passenger" depart="1076.41" departLane="best" from="28156118" to="-167121171#6"/>
    <trip id="veh241" type="veh_passenger" depart="1080.89" departLane="best" from="-28008209" to="27929275#1"/>
    <trip id="veh242" type="veh_passenger" depart="1085.38" departLane="best" from="-203227845#1" to="-4525228#2"/>
    <trip id="veh243" type="veh_passenger" depart="1089.86" departLane="best" from="-1251326601#0" to="1067005198#0"/>
    <trip id="veh244" type="veh_passenger" depart="1094.35" departLane="best" from="27683089#4" to="-1005433650#0"/>
    <trip id="veh245" type="veh_passenger" depart="1098.83" departLane="best" from="4575267#0" to="660547380#1"/>
    <trip id="veh246" type="veh_passenger" depart="1103.32" departLane="best" from="-4810592#0" to="-631036134#1"/>
    <trip id="veh247" type="veh_passenger" depart="1107.80" departLane="best" from="27929347" to="4810580#2"/>
    <trip id="veh248" type="veh_passenger" depart="1112.29" departLane="best" from="28008220#14" to="1001067102#2"/>
    <trip id="veh249" type="veh_passenger" depart="1116.77" departLane="best" from="-4302843#0" to="818393761"/>
    <trip id="veh250" type="veh_passenger" depart="1121.26" departLane="best" from="-4721530#16" to="4794842#4"/>
    <trip id="veh251" type="veh_passenger" depart="1125.74" departLane="best" from="-135920189#1" to="-154979768#0"/>
    <trip id="veh252" type="veh_passenger" depart="1130.23" departLane="best" from="1001067100#2" to="4353079#1"/>
    <trip id="veh255" type="veh_passenger" depart="1143.68" departLane="best" from="628628140#2" to="4469144#6"/>
    <trip id="veh256" type="veh_passenger" depart="1148.17" departLane="best" from="1035353261#1" to="-27683089#25"/>
    <trip id="veh257" type="veh_passenger" depart="1152.65" departLane="best" from="-79707628#22" to="-11985681#0"/>
    <trip id="veh258" type="veh_passenger" depart="1157.14" departLane="best" from="-4810584#13" to="28008167#5"/>
    <trip id="veh259" type="veh_passenger" depart="1161.62" departLane="best" from="-631036134#4" to="628628140#2"/>
    <trip id="veh260" type="veh_passenger" depart="1166.11" departLane="best" from="28008219#10" to="4741117#6"/>
    <trip id="veh262" type="veh_passenger" depart="1175.08" departLane="best" from="-117960883#2" to="-4516374#2"/>
    <trip id="veh263" type="veh_passenger" depart="1179.56" departLane="best" from="11985681#1" to="-4741125#12"/>
    <trip id="veh264" type="veh_passenger" depart="1184.05" departLane="best" from="-187325485#0" to="-28156123#6"/>
    <trip id="veh265" type="veh_passenger" depart="1188.53" departLane="best" from="28008211#2" to="4810579#0"/>
    <trip id="veh266" type="veh_passenger" depart="1193.02" departLane="best" from="-172545612#0" to="-1069076529#2"/>
    <trip id="veh267" type="veh_passenger" depart="1197.50" departLane="best" from="1290072194#3" to="1001045462#1"/>
    <trip id="veh268" type="veh_passenger" depart="1201.99" departLane="best" from="4516399#2" to="-27683089#28"/>
    <trip id="veh269" type="veh_passenger" depart="1206.47" departLane="best" from="-28008211#0" to="-27683089#25"/>
    <trip id="veh270" type="veh_passenger" depart="1210.96" departLane="best" from="1290645111" to="4516399#4"/>
    <trip id="veh271" type="veh_passenger" depart="1215.44" departLane="best" from="-1080366136#1" to="-4302843#0"/>
    <trip id="veh272" type="veh_passenger" depart="1219.93" departLane="best" from="-86326093#2" to="1286214012#3"/>
    <trip id="veh274" type="veh_passenger" depart="1228.90" departLane="best" from="28008212#2" to="4316771#4"/>