<?xml version="1.0" encoding="UTF-8"?>

<!-- generated on 2025-02-21 17:47:21.709877 by randomTrips.py v1_21_0+1021-4606c0d7274
<configuration>
    <net-file value="osm.net.xml.gz"/>
    <output-trip-file value="osm.passenger.trips.high.xml"/>
    <route-file value="osm.passenger.rou.high.xml"/>
    <prefix value="veh"/>
    <trip-attributes value="departLane=&quot;best&quot;"/>
    <fringe-start-attributes value="departSpeed=&quot;max&quot;"/>
    <vehicle-class value="passenger"/>
    <lanes value="True"/>
    <fringe-factor value="7"/>
    <allow-fringe.min-length value="1000.0"/>
    <via-edge-types value="highway.motorway,highway.motorway_link,highway.trunk_link,highway.primary_link,highway.secondary_link,highway.tertiary_link"/>
    <min-distance value="300.0"/>
    <min-distance.fringe value="10.0"/>
    <remove-loops value="True"/>
    <validate value="True"/>
    <insertion-density value="100.0"/>
</configuration>
-->

<!-- generated on 2025-02-21 17:47:20 by Eclipse SUMO duarouter Version v1_21_0+1021-4606c0d7274
<duarouterConfiguration xmlns:xsi="http://www.w3.org/2001/XMLSchema-instance" xsi:noNamespaceSchemaLocation="http://sumo.dlr.de/xsd/duarouterConfiguration.xsd">

    <input>
        <net-file value="osm.net.xml.gz"/>
        <route-files value="osm.passenger.trips.high.xml"/>
    </input>

    <output>
        <output-file value="osm.passenger.trips.high.xml.tmp"/>
        <alternatives-output value="NUL"/>
        <write-trips value="true"/>
    </output>

    <processing>
        <remove-loops value="true"/>
    </processing>

    <time>
        <begin value="0.0"/>
        <end value="3600.0"/>
    </time>

    <report>
        <no-warnings value="true"/>
        <ignore-errors value="true"/>
        <no-step-log value="true"/>
    </report>

</duarouterConfiguration>
-->

<routes xmlns:xsi="http://www.w3.org/2001/XMLSchema-instance" xsi:noNamespaceSchemaLocation="http://sumo.dlr.de/xsd/routes_file.xsd">
    <vType id="veh_passenger" vClass="passenger"/>
    <vType id="emergency" vClass="emergency" color="white"/>
    <trip id="veh0" type="veh_passenger" depart="0.00" departLane="best" from="27930285#7" to="1001052089#2"/>
    <trip id="veh1" type="veh_passenger" depart="0.67" departLane="best" from="4741125#10" to="-4302843#3"/>
    <trip id="veh2" type="veh_passenger" depart="1.35" departLane="best" from="4302843#4" to="28008179#1"/>
    <trip id="veh3" type="veh_passenger" depart="2.02" departLane="best" from="671967031#15" to="-172545298#0"/>
    <trip id="veh4" type="veh_passenger" depart="2.69" departLane="best" departSpeed="max" from="1000824085" to="-1204821212#12"/>
    <trip id="veh5" type="veh_passenger" depart="3.36" departLane="best" from="-28156123#5" to="1255276395#2"/>
    <trip id="veh6" type="veh_passenger" depart="4.04" departLane="best" from="117960883#0" to="28008218#18"/>
    <trip id="veh7" type="veh_passenger" depart="4.71" departLane="best" from="-27930596#6" to="154565321"/>
    <trip id="veh9" type="veh_passenger" depart="6.05" departLane="best" from="28008211#2" to="27930620#11"/>
    <trip id="veh10" type="veh_passenger" depart="6.73" departLane="best" from="808525251#1" to="555566891#6"/>
    <trip id="veh11" type="veh_passenger" depart="7.40" departLane="best" from="4810585#0" to="27683075#6"/>
    <trip id="veh12" type="veh_passenger" depart="8.07" departLane="best" from="4759427#0" to="4353079#1"/>
    <trip id="veh13" type="veh_passenger" depart="8.75" departLane="best" from="-1336569593#2" to="-86326091#2"/>
    <trip id="veh14" type="veh_passenger" depart="9.42" departLane="best" from="-79707628#9" to="-156465749#2"/>
    <trip id="veh15" type="veh_passenger" depart="10.09" departLane="best" from="-4810577#15" to="27683100#1"/>
    <trip id="veh17" type="veh_passenger" depart="11.44" departLane="best" from="28008219#9" to="1279205443#1"/>
    <trip id="veh18" type="veh_passenger" depart="12.11" departLane="best" from="-4353079#2" to="-4810575#10"/>
    <trip id="veh20" type="veh_passenger" depart="13.46" departLane="best" from="-203227845#0" to="-4741125#13"/>
    <trip id="veh21" type="veh_passenger" depart="14.13" departLane="best" from="-27930285#1" to="-780214#5"/>
    <trip id="veh22" type="veh_passenger" depart="14.80" departLane="best" from="-79707615#6" to="-28008220#19"/>
    <trip id="veh23" type="veh_passenger" depart="15.47" departLane="best" from="-4721530#13" to="79819328#2"/>
    <trip id="veh24" type="veh_passenger" depart="16.15" departLane="best" from="-27930596#13" to="27683089#25"/>
    <trip id="veh25" type="veh_passenger" depart="16.82" departLane="best" from="27930623#7" to="4353079#0"/>
    <trip id="veh26" type="veh_passenger" depart="17.49" departLane="best" from="-27930621#26" to="-79707628#3"/>
    <trip id="veh27" type="veh_passenger" depart="18.16" departLane="best" departSpeed="max" from="167121167" to="28008207#1"/>
    <trip id="veh29" type="veh_passenger" depart="19.51" departLane="best" from="-4353081#0" to="-1204821212#7"/>
    <trip id="veh30" type="veh_passenger" depart="20.18" departLane="best" from="-4810587#1" to="4721530#10"/>
    <trip id="veh31" type="veh_passenger" depart="20.86" departLane="best" from="-28008220#7" to="79824393#3"/>
    <trip id="veh32" type="veh_passenger" depart="21.53" departLane="best" from="613782963" to="4810584#21"/>
    <trip id="veh33" type="veh_passenger" depart="22.20" departLane="best" from="27930620#20" to="-79824264#0"/>
    <trip id="veh34" type="veh_passenger" depart="22.87" departLane="best" from="783634#2" to="1035353261#0"/>
    <trip id="veh35" type="veh_passenger" depart="23.55" departLane="best" from="4721529#2" to="4516372#7"/>
    <trip id="veh37" type="veh_passenger" depart="24.89" departLane="best" from="-175290823#2" to="693555191#5"/>
    <trip id="veh38" type="veh_passenger" depart="25.56" departLane="best" from="-175290825" to="1284150117#0"/>
    <trip id="veh39" type="veh_passenger" depart="26.24" departLane="best" from="27681444#3" to="27929275#5"/>
    <trip id="veh40" type="veh_passenger" depart="26.91" departLane="best" from="-4721530#1" to="1001045462#1"/>
    <trip id="veh41" type="veh_passenger" depart="27.58" departLane="best" from="-1290645110#0" to="79708053#5"/>
    <trip id="veh42" type="veh_passenger" depart="28.26" departLane="best" from="987276833#6" to="1286571609#2"/>
    <trip id="veh43" type="veh_passenger" depart="28.93" departLane="best" from="83299925#2" to="555527550#0"/>
    <trip id="veh44" type="veh_passenger" depart="29.60" departLane="best" from="1006440424#0" to="4251234#1"/>
    <trip id="veh45" type="veh_passenger" depart="30.27" departLane="best" from="28008179#1" to="-1290072194#5"/>
    <trip id="veh46" type="veh_passenger" depart="30.95" departLane="best" from="4721530#12" to="27930596#1"/>
    <trip id="veh47" type="veh_passenger" depart="31.62" departLane="best" from="-27683075#15" to="1002821859#0"/>
    <trip id="veh48" type="veh_passenger" depart="32.29" departLane="best" from="1006428687#0" to="808525248#3"/>
    <trip id="veh51" type="veh_passenger" depart="34.31" departLane="best" from="780336#6" to="555566891#3"/>
    <trip id="veh52" type="veh_passenger" depart="34.98" departLane="best" from="-4810577#3" to="27930286#8"/>
    <trip id="veh53" type="veh_passenger" depart="35.66" departLane="best" from="-27683075#6" to="-27930596#9"/>
    <trip id="veh55" type="veh_passenger" depart="37.00" departLane="best" from="-1001048839#1" to="-4810629#1"/>
    <trip id="veh56" type="veh_passenger" depart="37.67" departLane="best" from="-1069076529#1" to="-79708057#0"/>
    <trip id="veh57" type="veh_passenger" depart="38.35" departLane="best" from="613788732" to="-4810582#4"/>
    <trip id="veh58" type="veh_passenger" depart="39.02" departLane="best" from="4810582#2" to="-1290072194#0"/>
    <trip id="veh59" type="veh_passenger" depart="39.69" departLane="best" from="613788731" to="8057870#13"/>
    <trip id="veh61" type="veh_passenger" depart="41.04" departLane="best" from="-165420760#0" to="-4516399#2"/>
    <trip id="veh62" type="veh_passenger" depart="41.71" departLane="best" from="-4516372#6" to="27929143#2"/>
    <trip id="veh63" type="veh_passenger" depart="42.38" departLane="best" from="1074295407#0" to="154979769#2"/>
    <trip id="veh64" type="veh_passenger" depart="43.06" departLane="best" from="4721529#2" to="555566893#4"/>
    <trip id="veh65" type="veh_passenger" depart="43.73" departLane="best" departSpeed="max" from="1000824085" to="28008220#5"/>
    <trip id="veh66" type="veh_passenger" depart="44.40" departLane="best" departSpeed="max" from="149227836#0" to="4353079#1"/>
    <trip id="veh67" type="veh_passenger" depart="45.07" departLane="best" from="-28008219#12" to="-4810583#5"/>
    <trip id="veh68" type="veh_passenger" depart="45.75" departLane="best" from="1002821859#0" to="-1279205442#0"/>
    <trip id="veh69" type="veh_passenger" depart="46.42" departLane="best" from="27683089#7" to="4316771#0"/>
    <trip id="veh70" type="veh_passenger" depart="47.09" departLane="best" from="-631036134#4" to="191973555#1"/>
    <trip id="veh71" type="veh_passenger" depart="47.77" departLane="best" from="4353083" to="-28156123#6"/>
    <trip id="veh72" type="veh_passenger" depart="48.44" departLane="best" from="-165420771#2" to="27930285#11"/>
    <trip id="veh73" type="veh_passenger" depart="49.11" departLane="best" from="4422127#8" to="28006151#1"/>
    <trip id="veh74" type="veh_passenger" depart="49.78" departLane="best" from="-28156120#2" to="-27929270#3"/>
    <trip id="veh75" type="veh_passenger" depart="50.46" departLane="best" from="79819326#1" to="170130108#2"/>
    <trip id="veh76" type="veh_passenger" depart="51.13" departLane="best" from="1067005214#0" to="4721530#16"/>
    <trip id="veh77" type="veh_passenger" depart="51.80" departLane="best" from="4759427#0" to="-28008185#4"/>
    <trip id="veh78" type="veh_passenger" depart="52.47" departLane="best" from="-187325485#6" to="1001067102#0"/>
    <trip id="veh79" type="veh_passenger" depart="53.15" departLane="best" departSpeed="max" from="377315375" to="28008167#5"/>
    <trip id="veh80" type="veh_passenger" depart="53.82" departLane="best" from="931013#2" to="-189540210#1"/>
    <trip id="veh81" type="veh_passenger" depart="54.49" departLane="best" from="86326091#11" to="-631036134#1"/>
    <trip id="veh82" type="veh_passenger" depart="55.17" departLane="best" from="489138126#1" to="4516374#4"/>
    <trip id="veh83" type="veh_passenger" depart="55.84" departLane="best" from="-28008207#0" to="1006421041"/>
    <trip id="veh84" type="veh_passenger" depart="56.51" departLane="best" departSpeed="max" from="1000824085" to="-4741125#15"/>
    <trip id="veh85" type="veh_passenger" depart="57.18" departLane="best" from="4516399#2" to="79707628#2"/>
    <trip id="veh86" type="veh_passenger" depart="57.86" departLane="best" from="156465747#0" to="1286258899#3"/>
    <trip id="veh87" type="veh_passenger" depart="58.53" departLane="best" from="987276834#8" to="4810584#20"/>
    <trip id="veh88" type="veh_passenger" depart="59.20" departLane="best" from="83299924#3" to="79707628#9"/>
    <trip id="veh89" type="veh_passenger" depart="59.88" departLane="best" from="-4810587#1" to="-27930621#35"/>
    <trip id="veh90" type="veh_passenger" depart="60.55" departLane="best" from="-117960883#0" to="-28019565"/>
    <trip id="veh91" type="veh_passenger" depart="61.22" departLane="best" from="-79708053#1" to="965084433#0"/>
    <trip id="veh92" type="veh_passenger" depart="61.89" departLane="best" from="-4721529#2" to="4721530#15"/>
    <trip id="veh93" type="veh_passenger" depart="62.57" departLane="best" from="808525251#2" to="987276833#2"/>
    <trip id="veh94" type="veh_passenger" depart="63.24" departLane="best" from="-27930620#11" to="4810577#12"/>
    <trip id="veh95" type="veh_passenger" depart="63.91" departLane="best" from="83299924#3" to="175290825"/>
    <trip id="veh96" type="veh_passenger" depart="64.58" departLane="best" departSpeed="max" from="149227836#0" to="-4422127#6"/>
    <trip id="veh97" type="veh_passenger" depart="65.26" departLane="best" from="1290072193" to="187325485#4"/>
    <trip id="veh99" type="veh_passenger" depart="66.60" departLane="best" from="-27930620#22" to="808536205#0"/>
    <trip id="veh101" type="veh_passenger" depart="67.95" departLane="best" from="196776973#1" to="28008172#1"/>
    <trip id="veh102" type="veh_passenger" depart="68.62" departLane="best" from="4422127#2" to="-27683089#28"/>
    <trip id="veh103" type="veh_passenger" depart="69.29" departLane="best" from="-660547380#1" to="4516372#6"/>
    <trip id="veh104" type="veh_passenger" depart="69.97" departLane="best" from="196776972" to="27683105#1"/>
    <trip id="veh105" type="veh_passenger" depart="70.64" departLane="best" departSpeed="max" from="1000824085" to="187325485#3"/>
    <trip id="veh106" type="veh_passenger" depart="71.31" departLane="best" from="1286571609#1" to="-79819321#1"/>
    <trip id="veh107" type="veh_passenger" depart="71.98" departLane="best" from="-4469144#1" to="79824393#1"/>
    <trip id="veh108" type="veh_passenger" depart="72.66" departLane="best" from="-27930625#13" to="-4810577#2"/>
    <trip id="veh109" type="veh_passenger" depart="73.33" departLane="best" from="-167121171#11" to="1006536035#4"/>
    <trip id="veh110" type="veh_passenger" depart="74.00" departLane="best" from="167121171#14" to="28008222#1"/>
    <trip id="veh111" type="veh_passenger" depart="74.68" departLane="best" from="-4721529#2" to="-79714753#1"/>
    <trip id="veh112" type="veh_passenger" depart="75.35" departLane="best" from="-79707615#3" to="-27930620#20"/>
    <trip id="veh113" type="veh_passenger" depart="76.02" departLane="best" from="4810578#0" to="28008220#2"/>
    <trip id="veh114" type="veh_passenger" depart="76.69" departLane="best" from="27930620#16" to="1006421040#0"/>
    <trip id="veh115" type="veh_passenger" depart="77.37" departLane="best" departSpeed="max" from="4794840#0" to="4810577#19"/>
    <trip id="veh116" type="veh_passenger" depart="78.04" departLane="best" from="-27930621#31" to="79819330#2"/>
    <trip id="veh117" type="veh_passenger" depart="78.71" departLane="best" from="-27929275#6" to="-27683089#10"/>
    <trip id="veh118" type="veh_passenger" depart="79.38" departLane="best" from="-23979207#1" to="163384343"/>
    <trip id="veh119" type="veh_passenger" depart="80.06" departLane="best" from="4741115#5" to="27683075#9"/>
    <trip id="veh121" type="veh_passenger" depart="81.40" departLane="best" from="11985681#1" to="-746502334#0"/>
    <trip id="veh122" type="veh_passenger" depart="82.08" departLane="best" from="-4810584#21" to="175291411#2"/>
    <trip id="veh123" type="veh_passenger" depart="82.75" departLane="best" departSpeed="max" from="1000824085" to="-4741125#10"/>
    <trip id="veh124" type="veh_passenger" depart="83.42" departLane="best" from="-1001085502" to="4525228#1"/>
    <trip id="veh126" type="veh_passenger" depart="84.77" departLane="best" from="4353079#2" to="191973555#0"/>
    <trip id="veh127" type="veh_passenger" depart="85.44" departLane="best" from="1001045463#0" to="1006421041"/>
    <trip id="veh128" type="veh_passenger" depart="86.11" departLane="best" from="-167121171#6" to="-628628148"/>
    <trip id="veh129" type="veh_passenger" depart="86.79" departLane="best" from="702738549#6" to="154830384#0"/>
    <trip id="veh130" type="veh_passenger" depart="87.46" departLane="best" from="4810578#2" to="187325485#2"/>
    <trip id="veh131" type="veh_passenger" depart="88.13" departLane="best" from="27930596#11" to="27683105#3"/>
    <trip id="veh132" type="veh_passenger" depart="88.80" departLane="best" from="4810582#4" to="702738549#1"/>
    <trip id="veh133" type="veh_passenger" depart="89.48" departLane="best" from="-4721530#7" to="555527550#0"/>
    <trip id="veh134" type="veh_passenger" depart="90.15" departLane="best" from="693555192#1" to="28008220#2"/>
    <trip id="veh135" type="veh_passenger" depart="90.82" departLane="best" from="4516399#1" to="-223982979#2"/>
    <trip id="veh136" type="veh_passenger" depart="91.49" departLane="best" from="-4525210#8" to="631036134#1"/>
    <trip id="veh137" type="veh_passenger" depart="92.17" departLane="best" from="-27930620#11" to="79710862#1"/>
    <trip id="veh138" type="veh_passenger" depart="92.84" departLane="best" from="5008224#1" to="86326093#1"/>
    <trip id="veh140" type="veh_passenger" depart="94.19" departLane="best" from="-1163538707#0" to="4375295"/>
    <trip id="veh141" type="veh_passenger" depart="94.86" departLane="best" from="-545451602#2" to="-79710863"/>
    <trip id="veh142" type="veh_passenger" depart="95.53" departLane="best" from="4741125#12" to="555566856"/>
    <trip id="veh145" type="veh_passenger" depart="97.55" departLane="best" from="-555566891#7" to="-5008224#3"/>
    <trip id="veh146" type="veh_passenger" depart="98.22" departLane="best" from="4302843#3" to="-4810576#3"/>
    <trip id="veh147" type="veh_passenger" depart="98.89" departLane="best" from="1006536034" to="4810579#2"/>
    <trip id="veh148" type="veh_passenger" depart="99.57" departLane="best" from="-4721530#4" to="-4353079#0"/>
    <trip id="veh149" type="veh_passenger" depart="100.24" departLane="best" from="-1080366136#0" to="-28008211#1"/>
    <trip id="veh150" type="veh_passenger" depart="100.91" departLane="best" from="-5008205#1" to="555566856"/>
    <trip id="veh151" type="veh_passenger" depart="101.59" departLane="best" from="818393761" to="-4741125#18"/>
    <trip id="veh152" type="veh_passenger" depart="102.26" departLane="best" from="27930286#11" to="8056022"/>
    <trip id="veh153" type="veh_passenger" depart="102.93" departLane="best" from="876658456#1" to="-1290072194#5"/>
    <trip id="veh154" type="veh_passenger" depart="103.60" departLane="best" from="79819330#2" to="-27683089#10"/>
    <trip id="veh155" type="veh_passenger" depart="104.28" departLane="best" from="83299925#2" to="28006372#1"/>
    <trip id="veh157" type="veh_passenger" depart="105.62" departLane="best" departSpeed="max" from="377315375" to="4810584#17"/>
    <trip id="veh158" type="veh_passenger" depart="106.30" departLane="best" from="27681444#4" to="1276582180"/>
    <trip id="veh159" type="veh_passenger" depart="106.97" departLane="best" from="79714753#2" to="172545612#1"/>
    <trip id="veh160" type="veh_passenger" depart="107.64" departLane="best" from="-4525228#0" to="28019543#3"/>
    <trip id="veh161" type="veh_passenger" depart="108.31" departLane="best" from="-1001048840#1" to="79707628#7"/>
    <trip id="veh162" type="veh_passenger" depart="108.99" departLane="best" from="145028552" to="4251234#0"/>
    <trip id="veh163" type="veh_passenger" depart="109.66" departLane="best" from="4353079#3" to="-28006327"/>
    <trip id="veh164" type="veh_passenger" depart="110.33" departLane="best" from="27930621#36" to="-5008205#0"/>
    <trip id="veh165" type="veh_passenger" depart="111.00" departLane="best" from="-4810585#0" to="4810651#0"/>
    <trip id="veh166" type="veh_passenger" depart="111.68" departLane="best" from="28156123#6" to="-4810577#3"/>
    <trip id="veh167" type="veh_passenger" depart="112.35" departLane="best" from="-4810583#4" to="-86326091#8"/>
    <trip id="veh168" type="veh_passenger" depart="113.02" departLane="best" from="86326091#11" to="-4810576#7"/>
    <trip id="veh169" type="veh_passenger" depart="113.70" departLane="best" from="-27929143#1" to="-987276834#8"/>
    <trip id="veh170" type="veh_passenger" depart="114.37" departLane="best" from="79819865#4" to="28008182#1"/>
    <trip id="veh171" type="veh_passenger" depart="115.04" departLane="best" from="-4810578#2" to="154979766#1"/>
    <trip id="veh172" type="veh_passenger" depart="115.71" departLane="best" from="1311842160#0" to="4810279#2"/>
    <trip id="veh173" type="veh_passenger" depart="116.39" departLane="best" from="1001048841#4" to="175291411#0"/>
    <trip id="veh174" type="veh_passenger" depart="117.06" departLane="best" from="27930620#19" to="1037317917#4"/>
    <trip id="veh175" type="veh_passenger" depart="117.73" departLane="best" from="1005337066#2" to="-28019565"/>
    <trip id="veh176" type="veh_passenger" depart="118.40" departLane="best" from="1067005214#1" to="-702738549#16"/>
    <trip id="veh178" type="veh_passenger" depart="119.75" departLane="best" from="-27929275#6" to="-555566891#1"/>
    <trip id="veh179" type="veh_passenger" depart="120.42" departLane="best" from="-4810279#1" to="4469144#5"/>
    <trip id="veh180" type="veh_passenger" depart="121.10" departLane="best" from="27930625#7" to="-4302843#5"/>
    <trip id="veh181" type="veh_passenger" depart="121.77" departLane="best" from="-28008218#20" to="1080366137#1"/>
    <trip id="veh182" type="veh_passenger" depart="122.44" departLane="best" from="-4810589#1" to="-167121171#11"/>
    <trip id="veh183" type="veh_passenger" depart="123.11" departLane="best" from="-987276833#2" to="-27929347"/>
    <trip id="veh184" type="veh_passenger" depart="123.79" departLane="best" from="-28008215#0" to="28008219#13"/>
    <trip id="veh185" type="veh_passenger" depart="124.46" departLane="best" departSpeed="max" from="121174586" to="4516372#0"/>
    <trip id="veh186" type="veh_passenger" depart="125.13" departLane="best" from="27930620#21" to="-1005433650#0"/>
    <trip id="veh187" type="veh_passenger" depart="125.80" departLane="best" departSpeed="max" from="4375294" to="4525210#8"/>
    <trip id="veh188" type="veh_passenger" depart="126.48" departLane="best" from="-23979206#0" to="1001048840#1"/>
    <trip id="veh189" type="veh_passenger" depart="127.15" departLane="best" from="-28006151#2" to="808525251#3"/>
    <trip id="veh190" type="veh_passenger" depart="127.82" departLane="best" from="4516399#1" to="4810651#1"/>
    <trip id="veh192" type="veh_passenger" depart="129.17" departLane="best" from="196776973#2" to="808525246#0"/>
    <trip id="veh193" type="veh_passenger" depart="129.84" departLane="best" from="671967031#12" to="-27683089#8"/>
    <trip id="veh194" type="veh_passenger" depart="130.51" departLane="best" from="28156123#5" to="1255276395#1"/>
    <trip id="veh195" type="veh_passenger" depart="131.19" departLane="best" from="-4810577#18" to="154979766#1"/>
    <trip id="veh197" type="veh_passenger" depart="132.53" departLane="best" from="-1069076529#4" to="-4575267#3"/>
    <trip id="veh198" type="veh_passenger" depart="133.21" departLane="best" from="4516374#4" to="27930286#4"/>
    <trip id="veh199" type="veh_passenger" depart="133.88" departLane="best" from="-4516372#6" to="1284150117#0"/>
    <trip id="veh200" type="veh_passenger" depart="134.55" departLane="best" from="-27929143#3" to="4741117#6"/>
    <trip id="veh202" type="veh_passenger" depart="135.90" departLane="best" from="4741115#3" to="1251326603#1"/>
    <trip id="veh203" type="veh_passenger" depart="136.57" departLane="best" departSpeed="max" from="149227836#0" to="-27930285#11"/>
    <trip id="veh204" type="veh_passenger" depart="137.24" departLane="best" from="4422125#2" to="28008218#20"/>
    <trip id="veh205" type="veh_passenger" depart="137.91" departLane="best" from="28008220#14" to="1290645109#1"/>
    <trip id="veh206" type="veh_passenger" depart="138.59" departLane="best" from="-86326093#2" to="135920189#1"/>
    <trip id="veh207" type="veh_passenger" depart="139.26" departLane="best" from="-987276833#8" to="28008220#11"/>
    <trip id="veh208" type="veh_passenger" depart="139.93" departLane="best" departSpeed="max" from="1000824085" to="746502333#1"/>
    <trip id="veh209" type="veh_passenger" depart="140.61" departLane="best" from="175290823#1" to="28008219#10"/>
    <trip id="veh210" type="veh_passenger" depart="141.28" departLane="best" from="4810629#4" to="4524775#7"/>
    <trip id="veh211" type="veh_passenger" depart="141.95" departLane="best" from="79708055#3" to="-1005433650#0"/>
    <trip id="veh212" type="veh_passenger" depart="142.62" departLane="best" from="693555192#0" to="4516372#0"/>
    <trip id="veh213" type="veh_passenger" depart="143.30" departLane="best" from="4810627#0" to="808525248#0"/>
    <trip id="veh214" type="veh_passenger" depart="143.97" departLane="best" departSpeed="max" from="1000824085" to="-4422127#5"/>
    <trip id="veh215" type="veh_passenger" depart="144.64" departLane="best" from="4302843#0" to="-28156123#17"/>
    <trip id="veh216" type="veh_passenger" depart="145.31" departLane="best" from="628628148" to="28008182#14"/>
    <trip id="veh217" type="veh_passenger" depart="145.99" departLane="best" from="-1037317917#1" to="27683105#3"/>
    <trip id="veh218" type="veh_passenger" depart="146.66" departLane="best" from="27683097#5" to="-117960883#2"/>
    <trip id="veh219" type="veh_passenger" depart="147.33" departLane="best" from="-79824393#2" to="168314805#2"/>
    <trip id="veh220" type="veh_passenger" depart="148.01" departLane="best" from="117960883#1" to="27930596#13"/>
    <trip id="veh221" type="veh_passenger" depart="148.68" departLane="best" from="-27929296#1" to="1035470064#1"/>
    <trip id="veh222" type="veh_passenger" depart="149.35" departLane="best" from="-1286258899#3" to="79707628#22"/>
    <trip id="veh223" type="veh_passenger" depart="150.02" departLane="best" from="-28008222#1" to="-4810754#1"/>
    <trip id="veh224" type="veh_passenger" depart="150.70" departLane="best" from="4469144#4" to="79707628#22"/>
    <trip id="veh225" type="veh_passenger" depart="151.37" departLane="best" from="4422125#1" to="4810583#2"/>
    <trip id="veh228" type="veh_passenger" depart="153.39" departLane="best" from="27930596#6" to="4721529#2"/>
    <trip id="veh229" type="veh_passenger" depart="154.06" departLane="best" from="-27930616#2" to="4516372#3"/>
    <trip id="veh230" type="veh_passenger" depart="154.73" departLane="best" from="-1069076529#3" to="-27930596#7"/>
    <trip id="veh231" type="veh_passenger" depart="155.41" departLane="best" from="-27683105#2" to="28006151#2"/>
    <trip id="veh232" type="veh_passenger" depart="156.08" departLane="best" from="-28008218#6" to="4524775#9"/>
    <trip id="veh233" type="veh_passenger" depart="156.75" departLane="best" from="-27930621#43" to="27683089#20"/>
    <trip id="veh234" type="veh_passenger" depart="157.42" departLane="best" departSpeed="max" from="4375294" to="27683075#9"/>
    <trip id="veh235" type="veh_passenger" depart="158.10" departLane="best" from="4810281#0" to="818393760"/>
    <trip id="veh236" type="veh_passenger" depart="158.77" departLane="best" from="1006421038#0" to="1163538707#2"/>
    <trip id="veh237" type="veh_passenger" depart="159.44" departLane="best" from="-4810584#17" to="28008182#1"/>
    <trip id="veh238" type="veh_passenger" depart="160.12" departLane="best" from="808525251#3" to="79824393#3"/>
    <trip id="veh239" type="veh_passenger" depart="160.79" departLane="best" from="28156120#2" to="-167121171#7"/>
    <trip id="veh240" type="veh_passenger" depart="161.46" departLane="best" from="28008211#1" to="27929275#5"/>
    <trip id="veh241" type="veh_passenger" depart="162.13" departLane="best" from="-223982979#1" to="-4525228#4"/>
    <trip id="veh242" type="veh_passenger" depart="162.81" departLane="best" from="-4810589#3" to="27681444#2"/>
    <trip id="veh243" type="veh_passenger" depart="163.48" departLane="best" from="27683089#7" to="-1005433650#0"/>
    <trip id="veh244" type="veh_passenger" depart="164.15" departLane="best" from="4525228#4" to="-671967031#14"/>
    <trip id="veh245" type="veh_passenger" depart="164.82" departLane="best" from="1001048839#2" to="-79707609#3"/>
    <trip id="veh246" type="veh_passenger" depart="165.50" departLane="best" from="-27930285#1" to="4810580#3"/>
    <trip id="veh247" type="veh_passenger" depart="166.17" departLane="best" from="28008220#18" to="1002821859#2"/>
    <trip id="veh248" type="veh_passenger" depart="166.84" departLane="best" from="-4302843#0" to="818393760"/>
    <trip id="veh249" type="veh_passenger" depart="167.52" departLane="best" from="-4721530#7" to="4810279#1"/>
    <trip id="veh250" type="veh_passenger" depart="168.19" departLane="best" from="145028552" to="117960883#1"/>
    <trip id="veh251" type="veh_passenger" depart="168.86" departLane="best" from="1001067102#1" to="4353079#2"/>
    <trip id="veh252" type="veh_passenger" depart="169.53" departLane="best" from="-4721530#16" to="4848962"/>
    <trip id="veh253" type="veh_passenger" depart="170.21" departLane="best" from="-4810577#18" to="172068741#0"/>
    <trip id="veh254" type="veh_passenger" depart="170.88" departLane="best" from="628628140#2" to="4516372#0"/>
    <trip id="veh256" type="veh_passenger" depart="172.22" departLane="best" from="-79708053#1" to="-11985681#0"/>
    <trip id="veh257" type="veh_passenger" depart="172.90" departLane="best" from="4810591#1" to="-28008170#3"/>
    <trip id="veh259" type="veh_passenger" depart="174.24" departLane="best" from="-656398106" to="628628140#0"/>
    <trip id="veh261" type="veh_passenger" depart="175.59" departLane="best" from="11985681#1" to="4516374#4"/>
    <trip id="veh262" type="veh_passenger" depart="176.26" departLane="best" from="-187325485#1" to="-4302843#0"/>
    <trip id="veh263" type="veh_passenger" depart="176.93" departLane="best" from="28008212#2" to="-4810580#1"/>
    <trip id="veh264" type="veh_passenger" depart="177.61" departLane="best" from="-172545612#0" to="-1074301970"/>
    <trip id="veh265" type="veh_passenger" depart="178.28" departLane="best" from="1290072194#6" to="1001048840#1"/>
    <trip id="veh266" type="veh_passenger" depart="178.95" departLane="best" departSpeed="max" from="4375294" to="-5008205#2"/>
    <trip id="veh267" type="veh_passenger" depart="179.63" departLane="best" from="4516399#7" to="-27683089#3"/>
    <trip id="veh268" type="veh_passenger" depart="180.30" departLane="best" from="-28008212#2" to="-27683089#27"/>
    <trip id="veh269" type="veh_passenger" depart="180.97" departLane="best" from="-1336569593#1" to="-4516399#7"/>