<?xml version="1.0" encoding="UTF-8"?>

<!-- generated on 2025-02-26 16:08:10.444406 by randomTrips.py v1_21_0+1021-4606c0d7274
<configuration>
    <net-file value="osm.net.xml.gz"/>
    <output-trip-file value="osm.passenger.traffic.trips.xml"/>
    <route-file value="osm.passenger.traffic.rou.xml"/>
    <prefix value="veh"/>
    <trip-attributes value="departLane=&quot;best&quot;"/>
    <fringe-start-attributes value="departSpeed=&quot;max&quot;"/>
    <vehicle-class value="passenger"/>
    <lanes value="True"/>
    <fringe-factor value="5"/>
    <allow-fringe.min-length value="1000.0"/>
    <via-edge-types value="highway.motorway,highway.motorway_link,highway.trunk_link,highway.primary_link,highway.secondary_link,highway.tertiary_link"/>
    <min-distance value="300.0"/>
    <min-distance.fringe value="10.0"/>
    <remove-loops value="True"/>
    <validate value="True"/>
    <insertion-density value="30.0"/>
</configuration>
-->

<!-- generated on 2025-02-26 16:08:10 by Eclipse SUMO duarouter Version v1_21_0+1021-4606c0d7274
<duarouterConfiguration xmlns:xsi="http://www.w3.org/2001/XMLSchema-instance" xsi:noNamespaceSchemaLocation="http://sumo.dlr.de/xsd/duarouterConfiguration.xsd">

    <input>
        <net-file value="osm.net.xml.gz"/>
        <route-files value="osm.passenger.traffic.trips.xml"/>
    </input>

    <output>
        <output-file value="osm.passenger.traffic.trips.xml.tmp"/>
        <alternatives-output value="NUL"/>
        <write-trips value="true"/>
    </output>

    <processing>
        <remove-loops value="true"/>
    </processing>

    <time>
        <begin value="0.0"/>
        <end value="3600.0"/>
    </time>

    <report>
        <no-warnings value="true"/>
        <ignore-errors value="true"/>
        <no-step-log value="true"/>
    </report>

</duarouterConfiguration>
-->

<routes xmlns:xsi="http://www.w3.org/2001/XMLSchema-instance" xsi:noNamespaceSchemaLocation="http://sumo.dlr.de/xsd/routes_file.xsd">
    <vType id="veh_passenger" vClass="passenger"/>
    <vType id="emergency" vClass="emergency" color="white"/>
    <trip id="veh0" type="veh_passenger" depart="0.00" departLane="best" from="27524740#18" to="-163418938#0"/>
    <trip id="veh1" type="veh_passenger" depart="1.55" departLane="best" from="117340984#4" to="-662249664#0"/>
    <trip id="veh2" type="veh_passenger" depart="3.09" departLane="best" from="554834984#10" to="35868089#10"/>
    <trip id="veh3" type="veh_passenger" depart="4.64" departLane="best" from="726600953#0" to="-219782282"/>
    <trip id="veh4" type="veh_passenger" depart="6.19" departLane="best" from="206233703#2" to="-163546228#1"/>
    <trip id="veh5" type="veh_passenger" depart="7.74" departLane="best" from="-586192044#0" to="27524740#10"/>
    <trip id="veh6" type="veh_passenger" depart="9.28" departLane="best" from="-163418939#0" to="559409913#1"/>
    <trip id="veh7" type="veh_passenger" depart="10.83" departLane="best" from="31715381#0" to="28020500#10"/>
    <trip id="veh8" type="veh_passenger" depart="12.38" departLane="best" from="600354683#10" to="-163418916#0"/>
    <trip id="veh9" type="veh_passenger" depart="13.92" departLane="best" from="600354681#2" to="37452621#4"/>
    <trip id="veh10" type="veh_passenger" depart="15.47" departLane="best" from="163418917#8" to="30454393#1"/>
    <trip id="veh11" type="veh_passenger" depart="17.02" departLane="best" from="272793959#6" to="28559210#1"/>
    <trip id="veh12" type="veh_passenger" depart="18.56" departLane="best" from="600354683#0" to="41203180#1"/>
    <trip id="veh13" type="veh_passenger" depart="20.11" departLane="best" from="28020494#13" to="977465928#1"/>
    <trip id="veh14" type="veh_passenger" depart="21.66" departLane="best" from="183248374#1" to="28069817#1"/>
    <trip id="veh15" type="veh_passenger" depart="23.21" departLane="best" departSpeed="max" from="600354688" to="28957381#3"/>
    <trip id="veh16" type="veh_passenger" depart="24.75" departLane="best" from="683012343#0" to="28341901#0"/>
    <trip id="veh17" type="veh_passenger" depart="26.30" departLane="best" from="379748559#5" to="163546270#1"/>
    <trip id="veh18" type="veh_passenger" depart="27.85" departLane="best" from="-68244480#0" to="117527607#4"/>
    <trip id="veh19" type="veh_passenger" depart="29.39" departLane="best" from="206233702#1" to="-68244484#0"/>
    <trip id="veh20" type="veh_passenger" depart="30.94" departLane="best" from="-28020489#11" to="117340984#4"/>
    <trip id="veh21" type="veh_passenger" depart="32.49" departLane="best" from="297864033#21" to="163546259#0"/>
    <trip id="veh22" type="veh_passenger" depart="34.03" departLane="best" from="-163546270#0" to="-559435595#5"/>
    <trip id="veh23" type="veh_passenger" depart="35.58" departLane="best" from="117340968" to="91215109#4"/>
    <trip id="veh24" type="veh_passenger" depart="37.13" departLane="best" from="554834983#0" to="380081448#9"/>
    <trip id="veh25" type="veh_passenger" depart="38.68" departLane="best" from="37247674#0" to="183248190#4"/>
    <trip id="veh26" type="veh_passenger" depart="40.22" departLane="best" from="977465930#8" to="297864033#14"/>
    <trip id="veh27" type="veh_passenger" depart="41.77" departLane="best" from="28069818#4" to="35868092#0"/>
    <trip id="veh28" type="veh_passenger" depart="43.32" departLane="best" from="662249665#7" to="-559409914#1"/>
    <trip id="veh29" type="veh_passenger" depart="44.86" departLane="best" from="-68244480#2" to="-163546228#5"/>
    <trip id="veh30" type="veh_passenger" depart="46.41" departLane="best" departSpeed="max" from="1309504667#0" to="117340955#1"/>
    <trip id="veh31" type="veh_passenger" depart="47.96" departLane="best" from="-586187403#1" to="927616847#14"/>
    <trip id="veh32" type="veh_passenger" depart="49.50" departLane="best" from="703241565#5" to="1271815577#7"/>
    <trip id="veh33" type="veh_passenger" depart="51.05" departLane="best" from="-322577439#1" to="183323144"/>
    <trip id="veh34" type="veh_passenger" depart="52.60" departLane="best" from="895416011#6" to="272793960#4"/>
    <trip id="veh35" type="veh_passenger" depart="54.15" departLane="best" from="117340955#0" to="-91215107#0"/>
    <trip id="veh36" type="veh_passenger" depart="55.69" departLane="best" from="28069819#12" to="117159125#16"/>
    <trip id="veh37" type="veh_passenger" depart="57.24" departLane="best" from="28341901#6" to="726600953#2"/>
    <trip id="veh38" type="veh_passenger" depart="58.79" departLane="best" from="981951790#4" to="27524740#17"/>
    <trip id="veh39" type="veh_passenger" depart="60.33" departLane="best" from="-268601769#2" to="-163546270#3"/>
    <trip id="veh40" type="veh_passenger" depart="61.88" departLane="best" from="28020494#15" to="-28957389#2"/>
    <trip id="veh41" type="veh_passenger" depart="63.43" departLane="best" departSpeed="max" from="586187417" to="28069819#16"/>
    <trip id="veh42" type="veh_passenger" depart="64.97" departLane="best" from="981951790#1" to="-28020489#0"/>
    <trip id="veh43" type="veh_passenger" depart="66.52" departLane="best" from="927616851#1" to="68244480#0"/>
    <trip id="veh44" type="veh_passenger" depart="68.07" departLane="best" from="-163418917#1" to="380081448#16"/>
    <trip id="veh45" type="veh_passenger" depart="69.62" departLane="best" from="35868097#2" to="28020489#9"/>
    <trip id="veh46" type="veh_passenger" depart="71.16" departLane="best" from="117340968" to="297864033#17"/>
    <trip id="veh47" type="veh_passenger" depart="72.71" departLane="best" from="-28020494#5" to="268601769#1"/>
    <trip id="veh48" type="veh_passenger" depart="74.26" departLane="best" from="272793959#8" to="927616847#9"/>
    <trip id="veh49" type="veh_passenger" depart="75.80" departLane="best" from="703241565#5" to="117159125#17"/>
    <trip id="veh50" type="veh_passenger" depart="77.35" departLane="best" from="27427949#1" to="-554834984#12"/>
    <trip id="veh51" type="veh_passenger" depart="78.90" departLane="best" from="895416011#1" to="683012343#1"/>
    <trip id="veh52" type="veh_passenger" depart="80.44" departLane="best" from="1271815574#3" to="297864033#14"/>
    <trip id="veh53" type="veh_passenger" depart="81.99" departLane="best" from="559409913#1" to="-28020494#14"/>
    <trip id="veh54" type="veh_passenger" depart="83.54" departLane="best" from="586187402#1" to="-28020489#10"/>
    <trip id="veh55" type="veh_passenger" depart="85.09" departLane="best" from="-1132385904#0" to="1309504668#23"/>
    <trip id="veh56" type="veh_passenger" depart="86.63" departLane="best" from="-163418931#1" to="91215088#2"/>
    <trip id="veh57" type="veh_passenger" depart="88.18" departLane="best" from="726600944#0" to="1132385903#1"/>
    <trip id="veh58" type="veh_passenger" depart="89.73" departLane="best" from="1271815577#4" to="-183248412#3"/>
    <trip id="veh59" type="veh_passenger" depart="91.27" departLane="best" from="726600941#3" to="927616847#2"/>
    <trip id="veh60" type="veh_passenger" depart="92.82" departLane="best" from="-220729995#0" to="273248233#7"/>
    <trip id="veh61" type="veh_passenger" depart="94.37" departLane="best" from="202548522#0" to="559406201#1"/>
    <trip id="veh62" type="veh_passenger" depart="95.91" departLane="best" from="559409913#4" to="-28069818#6"/>
    <trip id="veh63" type="veh_passenger" depart="97.46" departLane="best" from="273248233#16" to="-28020500#6"/>
    <trip id="veh64" type="veh_passenger" depart="99.01" departLane="best" from="219782274" to="586187403#0"/>
    <trip id="veh65" type="veh_passenger" depart="100.56" departLane="best" from="28020494#5" to="41203180#2"/>
    <trip id="veh66" type="veh_passenger" depart="102.10" departLane="best" from="-559409913#5" to="1271815577#5"/>
    <trip id="veh67" type="veh_passenger" depart="103.65" departLane="best" from="981951790#1" to="31715308#0"/>
    <trip id="veh68" type="veh_passenger" depart="105.20" departLane="best" from="272793958#1" to="262805248#2"/>
    <trip id="veh69" type="veh_passenger" depart="106.74" departLane="best" from="-28020500#9" to="-662249665#0"/>
    <trip id="veh70" type="veh_passenger" depart="108.29" departLane="best" from="163418917#4" to="28341901#6"/>
    <trip id="veh71" type="veh_passenger" depart="109.84" departLane="best" from="-68244482#1" to="586192044#0"/>
    <trip id="veh72" type="veh_passenger" depart="111.38" departLane="best" from="-202548525#0" to="296659292#1"/>
    <trip id="veh73" type="veh_passenger" depart="112.93" departLane="best" from="68244480#2" to="844771822#6"/>
    <trip id="veh74" type="veh_passenger" depart="114.48" departLane="best" from="68244481#1" to="-202548522#0"/>
    <trip id="veh75" type="veh_passenger" depart="116.03" departLane="best" from="-91215088#0" to="35868088#11"/>
    <trip id="veh76" type="veh_passenger" depart="117.57" departLane="best" from="-586187404#1" to="-28484744#4"/>
    <trip id="veh77" type="veh_passenger" depart="119.12" departLane="best" from="91215107#5" to="28069819#5"/>
    <trip id="veh78" type="veh_passenger" depart="120.67" departLane="best" from="273248233#14" to="559465488#4"/>
    <trip id="veh79" type="veh_passenger" depart="122.21" departLane="best" from="600354683#1" to="559406201#0"/>
    <trip id="veh80" type="veh_passenger" depart="123.76" departLane="best" from="-272793960#7" to="258091333#6"/>
    <trip id="veh81" type="veh_passenger" depart="125.31" departLane="best" from="219782276" to="273034617#4"/>
    <trip id="veh82" type="veh_passenger" depart="126.85" departLane="best" from="453043774#1" to="35868088#6"/>
    <trip id="veh83" type="veh_passenger" depart="128.40" departLane="best" from="977465930#2" to="-272793960#6"/>
    <trip id="veh84" type="veh_passenger" depart="129.95" departLane="best" from="202548522#1" to="-163418917#4"/>
    <trip id="veh85" type="veh_passenger" depart="131.50" departLane="best" from="683012343#0" to="977465929#1"/>
    <trip id="veh86" type="veh_passenger" depart="133.04" departLane="best" from="-559406202#0" to="272793959#4"/>
    <trip id="veh87" type="veh_passenger" depart="134.59" departLane="best" from="206233703#2" to="117340984#7"/>
    <trip id="veh88" type="veh_passenger" depart="136.14" departLane="best" from="1132385903#0" to="895416017#0"/>
    <trip id="veh89" type="veh_passenger" depart="137.68" departLane="best" from="272793959#1" to="-68244480#0"/>
    <trip id="veh90" type="veh_passenger" depart="139.23" departLane="best" from="981951790#5" to="600354699#1"/>
    <trip id="veh91" type="veh_passenger" depart="140.78" departLane="best" from="927616849#8" to="895416017#6"/>
    <trip id="veh92" type="veh_passenger" depart="142.32" departLane="best" from="662273750#1" to="-37247674#5"/>
    <trip id="veh93" type="veh_passenger" depart="143.87" departLane="best" from="273248233#8" to="586187403#3"/>
    <trip id="veh94" type="veh_passenger" depart="145.42" departLane="best" from="202548487#7" to="183248412#4"/>
    <trip id="veh95" type="veh_passenger" depart="146.97" departLane="best" from="183248374#2" to="977465930#4"/>
    <trip id="veh96" type="veh_passenger" depart="148.51" departLane="best" from="117340955#1" to="-559465488#3"/>
    <trip id="veh97" type="veh_passenger" depart="150.06" departLane="best" from="927616849#1" to="981951790#1"/>
    <trip id="veh98" type="veh_passenger" depart="151.61" departLane="best" from="28069818#2" to="380081448#13"/>
    <trip id="veh99" type="veh_passenger" depart="153.15" departLane="best" from="-30454393#0" to="118577779#0"/>
    <trip id="veh100" type="veh_passenger" depart="154.70" departLane="best" from="927616849#7" to="28341901#1"/>
    <trip id="veh101" type="veh_passenger" depart="156.25" departLane="best" from="28020494#9" to="-554834984#2"/>
    <trip id="veh102" type="veh_passenger" depart="157.79" departLane="best" from="-183248412#3" to="28341901#2"/>
    <trip id="veh103" type="veh_passenger" depart="159.34" departLane="best" from="27524740#1" to="272793959#1"/>
    <trip id="veh104" type="veh_passenger" depart="160.89" departLane="best" from="-322577439#0" to="927616849#2"/>
    <trip id="veh105" type="veh_passenger" depart="162.44" departLane="best" from="206233702#1" to="-554834984#6"/>
    <trip id="veh106" type="veh_passenger" depart="163.98" departLane="best" from="28524049#2" to="35868088#9"/>
    <trip id="veh107" type="veh_passenger" depart="165.53" departLane="best" from="844771822#7" to="-28020500#3"/>
    <trip id="veh108" type="veh_passenger" depart="167.08" departLane="best" from="726600950#7" to="272793960#7"/>
    <trip id="veh109" type="veh_passenger" depart="168.62" departLane="best" from="28524049#1" to="-28957381#5"/>
    <trip id="veh110" type="veh_passenger" depart="170.17" departLane="best" from="206233702#0" to="28341901#2"/>
    <trip id="veh111" type="veh_passenger" depart="171.72" departLane="best" from="27524740#6" to="91215109#0"/>
    <trip id="veh112" type="veh_passenger" depart="173.26" departLane="best" from="559435591#2" to="380081448#1"/>
    <trip id="veh113" type="veh_passenger" depart="174.81" departLane="best" from="-91215088#1" to="183323144"/>
    <trip id="veh114" type="veh_passenger" depart="176.36" departLane="best" from="35868089#12" to="1271815574#1"/>
    <trip id="veh115" type="veh_passenger" depart="177.91" departLane="best" from="1309504668#1" to="-554834984#5"/>
    <trip id="veh116" type="veh_passenger" depart="179.45" departLane="best" from="-202548527#0" to="272793960#17"/>
    <trip id="veh117" type="veh_passenger" depart="181.00" departLane="best" from="-202548528#0" to="586187403#2"/>
    <trip id="veh118" type="veh_passenger" depart="182.55" departLane="best" from="163546263#1" to="322577439#0"/>
    <trip id="veh119" type="veh_passenger" depart="184.09" departLane="best" from="600354699#1" to="37452624#1"/>
    <trip id="veh120" type="veh_passenger" depart="185.64" departLane="best" from="28824076#9" to="977465930#7"/>
    <trip id="veh121" type="veh_passenger" depart="187.19" departLane="best" from="318977732#2" to="-163418916#2"/>
    <trip id="veh122" type="veh_passenger" depart="188.73" departLane="best" from="600354683#4" to="1271815574#1"/>
    <trip id="veh123" type="veh_passenger" depart="190.28" departLane="best" from="35868088#10" to="927616847#10"/>
    <trip id="veh124" type="veh_passenger" depart="191.83" departLane="best" from="-28524049#2" to="-28020494#7"/>
    <trip id="veh125" type="veh_passenger" depart="193.38" departLane="best" from="-28020494#10" to="28069817#3"/>
    <trip id="veh126" type="veh_passenger" depart="194.92" departLane="best" from="117340982#5" to="28559235#1"/>
    <trip id="veh127" type="veh_passenger" depart="196.47" departLane="best" from="600354683#11" to="-559409914#1"/>
    <trip id="veh128" type="veh_passenger" depart="198.02" departLane="best" from="27524740#3" to="117159125#2"/>
    <trip id="veh129" type="veh_passenger" depart="199.56" departLane="best" from="273924630#1" to="-844771822#6"/>
    <trip id="veh130" type="veh_passenger" depart="201.11" departLane="best" from="-1184377689" to="559409913#1"/>
    <trip id="veh131" type="veh_passenger" depart="202.66" departLane="best" from="297864033#3" to="117159125#13"/>
    <trip id="veh132" type="veh_passenger" depart="204.20" departLane="best" from="554834984#2" to="28020500#9"/>
    <trip id="veh133" type="veh_passenger" depart="205.75" departLane="best" from="220729997#3" to="-163418916#7"/>
    <trip id="veh134" type="veh_passenger" depart="207.30" departLane="best" from="202548530#1" to="726600944#2"/>
    <trip id="veh135" type="veh_passenger" depart="208.85" departLane="best" from="895416000#0" to="28020500#11"/>
    <trip id="veh136" type="veh_passenger" depart="210.39" departLane="best" from="600354700#0" to="28341901#11"/>
    <trip id="veh137" type="veh_passenger" depart="211.94" departLane="best" from="-28957381#5" to="-28069818#5"/>
    <trip id="veh138" type="veh_passenger" depart="213.49" departLane="best" from="1271815577#5" to="726600953#3"/>
    <trip id="veh139" type="veh_passenger" depart="215.03" departLane="best" from="586187435#4" to="68244479#0"/>
    <trip id="veh140" type="veh_passenger" depart="216.58" departLane="best" from="844771822#10" to="-559435595#6"/>
    <trip id="veh141" type="veh_passenger" depart="218.13" departLane="best" from="1132385903#0" to="-28020489#10"/>
    <trip id="veh142" type="veh_passenger" depart="219.67" departLane="best" from="586187403#0" to="726600944#2"/>
    <trip id="veh143" type="veh_passenger" depart="221.22" departLane="best" from="202548528#1" to="28957381#6"/>
    <trip id="veh144" type="veh_passenger" depart="222.77" departLane="best" from="-30454393#0" to="91215092#0"/>
    <trip id="veh145" type="veh_passenger" depart="224.32" departLane="best" from="600354683#11" to="726600941#3"/>
    <trip id="veh146" type="veh_passenger" depart="225.86" departLane="best" from="-163418938#0" to="318977731#1"/>
    <trip id="veh147" type="veh_passenger" depart="227.41" departLane="best" from="163418916#0" to="91215094"/>
    <trip id="veh148" type="veh_passenger" depart="228.96" departLane="best" from="-586192044#8" to="68244484#0"/>
    <trip id="veh149" type="veh_passenger" depart="230.50" departLane="best" from="380081448#5" to="586187413#4"/>
    <trip id="veh150" type="veh_passenger" depart="232.05" departLane="best" from="586187414#1" to="-28020489#8"/>
    <trip id="veh151" type="veh_passenger" depart="233.60" departLane="best" from="703241565#2" to="68244478#1"/>
    <trip id="veh152" type="veh_passenger" depart="235.14" departLane="best" from="-662249664#1" to="600354683#12"/>
    <trip id="veh153" type="veh_passenger" depart="236.69" departLane="best" from="-163418934#2" to="559409910#0"/>
    <trip id="veh154" type="veh_passenger" depart="238.24" departLane="best" from="1309515173" to="68244484#0"/>
    <trip id="veh155" type="veh_passenger" depart="239.79" departLane="best" from="927616849#6" to="117340984#8"/>
    <trip id="veh156" type="veh_passenger" depart="241.33" departLane="best" from="314273370#1" to="202548487#1"/>
    <trip id="veh157" type="veh_passenger" depart="242.88" departLane="best" from="-977465929#1" to="28020489#8"/>
    <trip id="veh158" type="veh_passenger" depart="244.43" departLane="best" from="927616847#10" to="-28020494#7"/>
    <trip id="veh159" type="veh_passenger" depart="245.97" departLane="best" from="927616851#1" to="554834984#12"/>
    <trip id="veh160" type="veh_passenger" depart="247.52" departLane="best" from="927616849#2" to="117159125#7"/>
    <trip id="veh161" type="veh_passenger" depart="249.07" departLane="best" from="-28020494#13" to="268601769#1"/>
    <trip id="veh162" type="veh_passenger" depart="250.61" departLane="best" from="453043774#0" to="1271815577#6"/>
    <trip id="veh163" type="veh_passenger" depart="252.16" departLane="best" from="28824076#10" to="27524740#2"/>
    <trip id="veh164" type="veh_passenger" depart="253.71" departLane="best" from="183248774" to="28341901#0"/>
    <trip id="veh165" type="veh_passenger" depart="255.26" departLane="best" from="117340970#1" to="895416017#3"/>
    <trip id="veh166" type="veh_passenger" depart="256.80" departLane="best" from="28020494#16" to="380081448#14"/>
    <trip id="veh167" type="veh_passenger" depart="258.35" departLane="best" from="554834984#3" to="35868088#13"/>
    <trip id="veh168" type="veh_passenger" depart="259.90" departLane="best" from="-28020489#9" to="-202548521#0"/>
    <trip id="veh169" type="veh_passenger" depart="261.44" departLane="best" departSpeed="max" from="1309504667#0" to="662249666#2"/>
    <trip id="veh170" type="veh_passenger" depart="262.99" departLane="best" from="600354683#8" to="1271815574#2"/>
    <trip id="veh171" type="veh_passenger" depart="264.54" departLane="best" from="1271815577#6" to="202548528#0"/>
    <trip id="veh172" type="veh_passenger" depart="266.08" departLane="best" from="927616847#11" to="35868089#12"/>
    <trip id="veh173" type="veh_passenger" depart="267.63" departLane="best" from="844771822#8" to="28824076#9"/>
    <trip id="veh174" type="veh_passenger" depart="269.18" departLane="best" from="1271815574#5" to="-28020500#3"/>
    <trip id="veh175" type="veh_passenger" depart="270.73" departLane="best" from="-1132385904#0" to="117527607#2"/>
    <trip id="veh176" type="veh_passenger" depart="272.27" departLane="best" from="-322577439#0" to="600354681#0"/>
    <trip id="veh177" type="veh_passenger" depart="273.82" departLane="best" from="272793958#6" to="586187403#3"/>
    <trip id="veh178" type="veh_passenger" depart="275.37" departLane="best" from="273248233#14" to="726600954#2"/>
    <trip id="veh180" type="veh_passenger" depart="278.46" departLane="best" from="219782282" to="27524740#22"/>
    <trip id="veh181" type="veh_passenger" depart="280.01" departLane="best" from="297864033#17" to="163418916#3"/>
    <trip id="veh182" type="veh_passenger" depart="281.55" departLane="best" from="600354683#8" to="-554834984#5"/>
    <trip id="veh183" type="veh_passenger" depart="283.10" departLane="best" from="35868089#14" to="-662249665#0"/>
    <trip id="veh184" type="veh_passenger" depart="284.65" departLane="best" from="-559409913#4" to="-163418934#2"/>
    <trip id="veh185" type="veh_passenger" depart="286.20" departLane="best" departSpeed="max" from="104892103#1" to="273248233#15"/>
    <trip id="veh186" type="veh_passenger" depart="287.74" departLane="best" from="662273750#4" to="-202548525#0"/>
    <trip id="veh187" type="veh_passenger" depart="289.29" departLane="best" from="202640208#3" to="296659292#0"/>
    <trip id="veh188" type="veh_passenger" depart="290.84" departLane="best" from="-559409911#1" to="37452621#1"/>
    <trip id="veh189" type="veh_passenger" depart="292.38" departLane="best" from="273924630#5" to="-91215096#1"/>
    <trip id="veh190" type="veh_passenger" depart="293.93" departLane="best" from="-322577439#2" to="1221907006"/>
    <trip id="veh191" type="veh_passenger" depart="295.48" departLane="best" from="559406199#2" to="-559409913#1"/>
    <trip id="veh192" type="veh_passenger" depart="297.02" departLane="best" from="-28020489#9" to="-219782282"/>
    <trip id="veh193" type="veh_passenger" depart="298.57" departLane="best" from="-554834984#1" to="927616849#11"/>
    <trip id="veh194" type="veh_passenger" depart="300.12" departLane="best" from="27524740#26" to="173232779#2"/>
    <trip id="veh195" type="veh_passenger" depart="301.67" departLane="best" from="1132385903#0" to="662273749#1"/>
    <trip id="veh196" type="veh_passenger" depart="303.21" departLane="best" from="272793960#11" to="586187435#4"/>
    <trip id="veh197" type="veh_passenger" depart="304.76" departLane="best" from="35868088#5" to="977465930#7"/>
    <trip id="veh198" type="veh_passenger" depart="306.31" departLane="best" from="-28524049#4" to="927616849#11"/>
    <trip id="veh199" type="veh_passenger" depart="307.85" departLane="best" from="726600950#8" to="28824076#4"/>
    <trip id="veh200" type="veh_passenger" depart="309.40" departLane="best" from="380081448#7" to="27524740#10"/>
    <trip id="veh201" type="veh_passenger" depart="310.95" departLane="best" from="600354693#4" to="28020500#3"/>
    <trip id="veh202" type="veh_passenger" depart="312.49" departLane="best" from="726600954#2" to="554834984#10"/>
    <trip id="veh203" type="veh_passenger" depart="314.04" departLane="best" from="273248233#15" to="1132386480#3"/>
    <trip id="veh204" type="veh_passenger" depart="315.59" departLane="best" from="1057573128#1" to="297864033#11"/>
    <trip id="veh205" type="veh_passenger" depart="317.14" departLane="best" from="559409913#4" to="297864033#0"/>
    <trip id="veh206" type="veh_passenger" depart="318.68" departLane="best" from="27524740#28" to="117340982#4"/>
    <trip id="veh207" type="veh_passenger" depart="320.23" departLane="best" from="206233699" to="117527607#13"/>
    <trip id="veh208" type="veh_passenger" depart="321.78" departLane="best" from="117340982#4" to="1309504668#15"/>
    <trip id="veh209" type="veh_passenger" depart="323.32" departLane="best" from="28020494#6" to="28524049#5"/>
    <trip id="veh210" type="veh_passenger" depart="324.87" departLane="best" from="-68244484#0" to="37452619#1"/>
    <trip id="veh211" type="veh_passenger" depart="326.42" departLane="best" from="380081447#0" to="-183248800"/>
    <trip id="veh212" type="veh_passenger" depart="327.97" departLane="best" from="202548530#1" to="28020494#6"/>
    <trip id="veh213" type="veh_passenger" depart="329.51" departLane="best" from="202640209#0" to="-559435595#1"/>
    <trip id="veh214" type="veh_passenger" depart="331.06" departLane="best" from="206233702#1" to="844771822#4"/>
    <trip id="veh215" type="veh_passenger" depart="332.61" departLane="best" from="68244478#4" to="559409910#1"/>
    <trip id="veh216" type="veh_passenger" depart="334.15" departLane="best" from="183248374#4" to="-1319201423"/>
    <trip id="veh217" type="veh_passenger" depart="335.70" departLane="best" from="163418938#2" to="554834984#8"/>
    <trip id="veh218" type="veh_passenger" depart="337.25" departLane="best" from="68244476#3" to="927616847#9"/>
    <trip id="veh219" type="veh_passenger" depart="338.79" departLane="best" from="206233701" to="-554834984#2"/>
    <trip id="veh220" type="veh_passenger" depart="340.34" departLane="best" from="-586192044#6" to="-586187436#1"/>
    <trip id="veh221" type="veh_passenger" depart="341.89" departLane="best" from="-268601769#2" to="163546228#0"/>
    <trip id="veh222" type="veh_passenger" depart="343.44" departLane="best" from="163418916#8" to="35868089#3"/>
    <trip id="veh223" type="veh_passenger" depart="344.98" departLane="best" from="202548525#1" to="-37247674#2"/>
    <trip id="veh224" type="veh_passenger" depart="346.53" departLane="best" from="273034617#6" to="-28069818#5"/>
    <trip id="veh225" type="veh_passenger" depart="348.08" departLane="best" from="296659292#0" to="-163418939#0"/>
    <trip id="veh226" type="veh_passenger" depart="349.62" departLane="best" from="188517870" to="28069819#12"/>
    <trip id="veh227" type="veh_passenger" depart="351.17" departLane="best" from="-163418939#1" to="297864033#21"/>
    <trip id="veh228" type="veh_passenger" depart="352.72" departLane="best" from="-28524052#2" to="272793964"/>
    <trip id="veh229" type="veh_passenger" depart="354.26" departLane="best" from="586187403#2" to="1309504668#7"/>
    <trip id="veh230" type="veh_passenger" depart="355.81" departLane="best" from="-559409913#0" to="183248190#4"/>
    <trip id="veh231" type="veh_passenger" depart="357.36" departLane="best" from="559406200#1" to="1132385903#1"/>
    <trip id="veh232" type="veh_passenger" depart="358.91" departLane="best" from="600354700#0" to="-206233702#1"/>
    <trip id="veh233" type="veh_passenger" depart="360.45" departLane="best" from="163418931#1" to="28020494#14"/>
    <trip id="veh234" type="veh_passenger" depart="362.00" departLane="best" from="981951790#5" to="163418932#1"/>
    <trip id="veh235" type="veh_passenger" depart="363.55" departLane="best" from="31715381#0" to="559435595#3"/>
    <trip id="veh236" type="veh_passenger" depart="365.09" departLane="best" from="927616847#3" to="559409913#2"/>
    <trip id="veh237" type="veh_passenger" depart="366.64" departLane="best" from="-163418931#2" to="-28957389#1"/>
    <trip id="veh238" type="veh_passenger" depart="368.19" departLane="best" from="-28069820" to="35868088#12"/>
    <trip id="veh239" type="veh_passenger" depart="369.73" departLane="best" from="28069819#16" to="586187413#2"/>
    <trip id="veh240" type="veh_passenger" depart="371.28" departLane="best" from="37452626#0" to="-559409911#0"/>
    <trip id="veh242" type="veh_passenger" depart="374.38" departLane="best" from="554834984#9" to="-28020494#6"/>
    <trip id="veh243" type="veh_passenger" depart="375.92" departLane="best" from="600354683#8" to="927616849#5"/>
    <trip id="veh244" type="veh_passenger" depart="377.47" departLane="best" from="-28020494#11" to="-163418938#1"/>