<?xml version="1.0" encoding="UTF-8"?>

<!-- generated on 2025-02-26 16:08:09.638395 by randomTrips.py v1_21_0+1021-4606c0d7274
<configuration>
    <net-file value="osm.net.xml.gz"/>
    <output-trip-file value="osm.passenger.traffic.trips.xml"/>
    <route-file value="osm.passenger.traffic.rou.xml"/>
    <prefix value="veh"/>
    <trip-attributes value="departLane=&quot;best&quot;"/>
    <fringe-start-attributes value="departSpeed=&quot;max&quot;"/>
    <vehicle-class value="passenger"/>
    <lanes value="True"/>
    <fringe-factor value="5"/>
    <allow-fringe.min-length value="1000.0"/>
    <via-edge-types value="highway.motorway,highway.motorway_link,highway.trunk_link,highway.primary_link,highway.secondary_link,highway.tertiary_link"/>
    <min-distance value="300.0"/>
    <min-distance.fringe value="10.0"/>
    <remove-loops value="True"/>
    <validate value="True"/>
    <insertion-density value="30.0"/>
</configuration>
-->

<!-- generated on 2025-02-26 16:08:09 by Eclipse SUMO duarouter Version v1_21_0+1021-4606c0d7274
<duarouterConfiguration xmlns:xsi="http://www.w3.org/2001/XMLSchema-instance" xsi:noNamespaceSchemaLocation="http://sumo.dlr.de/xsd/duarouterConfiguration.xsd">

    <input>
        <net-file value="osm.net.xml.gz"/>
        <route-files value="osm.passenger.traffic.trips.xml"/>
    </input>

    <output>
        <output-file value="osm.passenger.traffic.rou.xml"/>
        <alternatives-output value="NUL"/>
    </output>

    <processing>
        <remove-loops value="true"/>
    </processing>

    <time>
        <begin value="0.0"/>
        <end value="3600.0"/>
    </time>

    <report>
        <no-warnings value="true"/>
        <ignore-errors value="true"/>
        <no-step-log value="true"/>
    </report>

</duarouterConfiguration>
-->

<routes xmlns:xsi="http://www.w3.org/2001/XMLSchema-instance" xsi:noNamespaceSchemaLocation="http://sumo.dlr.de/xsd/routes_file.xsd">
    <vType id="veh_passenger" vClass="passenger"/>
    <vType id="emergency" vClass="emergency" color="white"/>
    <vehicle id="veh0" type="veh_passenger" depart="0.00" departLane="best">
        <route edges="27524740#18 27524740#20 27524740#21 27524740#22 27524740#23 27524740#24 27524740#26 27524740#27 27524740#28 272793959#1 272793959#4 272793959#5 272793959#6 272793959#7 272793959#8 272793959#11 272793959#13 272793959#15 296659292#0 296659292#1 296659292#2 296659292#3 927616849#0 927616849#1 927616849#2 927616849#3 927616849#4 927616849#5 927616849#6 33883799#3 -163418917#9 -163418917#8 -28559235#3 -28559235#2 -163418938#2 -163418938#1 -163418938#0"/>
    </vehicle>
    <vehicle id="veh1" type="veh_passenger" depart="1.55" departLane="best">
        <route edges="117340984#4 117340984#7 117340984#8 117340984#9 586187435#0 586187435#1 586187435#2 586187435#3 586187435#4 586187435#5 586187435#6 27524740#17 27524740#18 27524740#20 27524740#21 27524740#22 27524740#23 -662249664#1 -662249664#0"/>
    </vehicle>
    <vehicle id="veh2" type="veh_passenger" depart="3.09" departLane="best">
        <route edges="554834984#10 554834984#12 554834984#13 895416003#0 380081448#0 380081448#1 380081448#4 380081448#5 380081448#6 380081448#7 380081448#8 380081448#9 380081448#12 380081448#13 380081448#14 380081448#16 600354681#0 600354681#1 600354681#2 27524740#1 27524740#2 27524740#3 27524740#6 27524740#7 27524740#10 27524740#11 559465488#2 559465488#3 559465488#4 28524049#1 28524049#2 -662249665#2 -662249665#1 -662249665#0 -844771822#11 35868089#7 35868089#8 35868089#9 35868089#10"/>
    </vehicle>
    <vehicle id="veh3" type="veh_passenger" depart="4.64" departLane="best">
        <route edges="726600953#0 726600953#2 726600953#3 726600953#4 117527607#0 117527607#1 117527607#2 117527607#3 117527607#4 117527607#5 117527607#6 117527607#7 117527607#8 117527607#11 117527607#12 117527607#13 -28020489#14 -28020489#13 -28020489#12 -28020489#11 -28020489#10 -28020489#9 -28020489#8 -28020489#7 -28020489#6 -28020489#4 -28020489#2 -28020489#1 -28020489#0 726600950#7 726600950#8 272793963#1 927616851#1 272793958#0 272793958#1 272793958#2 272793958#5 272793958#6 662273750#0 662273750#1 662273750#4 272793960#0 272793960#1 272793960#4 272793960#6 272793960#7 272793960#10 272793960#11 117340959#1 117340982#0 117340982#1 117340982#2 -219782282"/>
    </vehicle>
    <vehicle id="veh4" type="veh_passenger" depart="6.19" departLane="best">
        <route edges="206233703#2 206233703#3 28069819#16 28069819#17 28069819#18 28069819#19 703241565#5 -28020494#16 -28020494#15 -28020494#14 -28020494#13 -28020494#11 -28020494#10 -28020494#9 -28020494#8 -28020494#7 -28020494#6 -28020494#5 -28020494#4 117527607#11 117527607#12 117527607#13 1271815574#1 -163546228#5 -163546228#4 -163546228#3 -163546228#2 -163546228#1"/>
    </vehicle>
    <vehicle id="veh5" type="veh_passenger" depart="7.74" departLane="best">
        <route edges="-586192044#0 -586187404#1 -586187404#0 -586187403#4 -586187403#3 -586187403#2 -586187403#1 -586187403#0 -662249665#8 -662249665#7 35868092#0 35868092#1 586187401#0 27524740#10"/>
    </vehicle>
    <vehicle id="veh6" type="veh_passenger" depart="9.28" departLane="best">
        <route edges="-163418939#0 -163418931#3 -163418931#2 -163418931#1 927616847#12 927616847#13 927616847#14 927616847#15 927616847#16 272793963#1 927616851#1 268601769#1 268601769#2 554834983#0 554834983#4 559409913#0 559409913#1"/>
    </vehicle>
    <vehicle id="veh7" type="veh_passenger" depart="10.83" departLane="best">
        <route edges="31715381#0 559409913#1 559409913#2 559409913#4 559409913#5 559409911#0 559409911#1 31715374#1 559409907 559406200#0 559406200#1 559406203#1 559406203#2 559406201#0 559406201#1 726600944#2 726600944#3 726600944#4 726600944#5 28020500#2 28020500#3 28020500#4 28020500#5 28020500#6 28020500#7 28020500#8 28020500#9 28020500#10"/>
    </vehicle>
    <vehicle id="veh8" type="veh_passenger" depart="12.38" departLane="best">
        <route edges="600354683#10 600354683#11 600354683#12 600354683#15 600354683#16 895416004#1 895416000#0 895416000#1 318977732#1 318977732#2 726600941#3 28020500#2 28020500#3 28020500#4 28020500#5 28020500#6 28020500#7 28020500#8 28020500#9 28020500#10 28020500#11 28020500#12 117527607#2 117527607#3 117527607#4 117527607#5 117527607#6 117527607#7 117527607#8 117527607#11 117527607#12 117527607#13 1271815574#1 -163546228#5 -163546228#4 -163546228#3 -163546228#2 -163546228#1 -163546228#0 163418917#4 163418917#5 -163418916#1 -163418916#0"/>
    </vehicle>
    <vehicle id="veh9" type="veh_passenger" depart="13.92" departLane="best">
        <route edges="600354681#2 27524740#1 27524740#2 27524740#3 27524740#6 27524740#7 27524740#10 27524740#11 559465488#2 559465488#3 559465488#4 28524049#1 28524049#2 28524049#4 28524049#5 586187436#0 586187436#1 586187414#0 586187414#1 37452621#4"/>
    </vehicle>
    <vehicle id="veh10" type="veh_passenger" depart="15.47" departLane="best">
        <route edges="163418917#8 163418917#9 927616847#10 927616847#11 927616847#12 927616847#13 927616847#14 -28957381#4 -28957381#3 -28957381#2 -28957381#1 -28957381#0 28559235#10 1271815577#2 1271815577#3 1271815577#4 1271815577#5 1271815577#6 1271815577#7 703241565#1 703241565#2 703241565#3 703241565#4 703241565#5 726600944#0 -30113395#0 -559406201#0 30454393#0 30454393#1"/>
    </vehicle>
    <vehicle id="veh11" type="veh_passenger" depart="17.02" departLane="best">
        <route edges="272793959#6 272793959#7 272793959#8 272793959#11 272793959#13 272793959#15 296659292#0 296659292#1 296659292#2 296659292#3 1271815577#0 1271815577#1 1271815577#2 1271815577#3 1271815577#4 1271815577#5 1271815577#6 1271815577#7 703241565#1 703241565#2 703241565#3 703241565#4 703241565#5 726600944#0 726600944#2 726600944#3 726600944#4 726600944#5 28020500#2 28020500#3 28020500#4 28020500#5 28020500#6 28020500#7 28559210#0 28559210#1"/>
    </vehicle>
    <vehicle id="veh12" type="veh_passenger" depart="18.56" departLane="best">
        <route edges="600354683#0 600354683#1 600354683#3 600354683#4 600354683#5 600354683#8 600354683#9 600354683#10 600354683#11 600354683#12 -559435595#6 41203180#1"/>
    </vehicle>
    <vehicle id="veh13" type="veh_passenger" depart="20.11" departLane="best">
        <route edges="28020494#13 28020494#14 28020494#15 28020494#16 726600950#4 726600950#7 726600950#8 272793963#1 927616851#1 272793958#0 272793958#1 272793958#2 272793958#5 272793958#6 662273750#0 662273750#1 662273750#4 272793960#0 272793960#1 272793960#4 272793960#6 272793960#7 272793960#10 272793960#11 272793960#14 272793960#17 977465928#0 977465928#1"/>
    </vehicle>
    <vehicle id="veh14" type="veh_passenger" depart="21.66" departLane="best">
        <route edges="183248374#1 183248374#2 183248374#3 -183248489 -28020494#6 -28020494#5 -28020494#4 117527607#11 117527607#12 117527607#13 1271815574#1 1271815574#2 1271815574#3 1271815574#4 1271815574#5 927616847#2 927616847#3 927616847#4 1057573128#1 28069817#1"/>
    </vehicle>
    <vehicle id="veh15" type="veh_passenger" depart="23.21" departLane="best" departSpeed="max">
        <route edges="600354688 1132385903#0 1132385903#1 600354700#3 600354700#4 273034614#1 273034614#2 273034614#3 600354683#0 600354683#1 600354683#3 600354683#4 600354683#5 600354683#8 600354683#9 600354683#10 600354683#11 600354683#12 600354683#15 600354683#16 895416004#1 895416000#0 895416000#1 318977732#1 318977732#2 726600941#3 726600950#0 726600950#2 726600950#4 28020489#0 28020489#1 28020489#2 163546270#0 163546248 28559235#9 28957381#0 28957381#1 28957381#2 28957381#3"/>
    </vehicle>
    <vehicle id="veh16" type="veh_passenger" depart="24.75" departLane="best">
        <route edges="683012343#0 683012343#1 683012343#2 977465928#0 977465928#1 977465928#2 977465928#4 -272793967 117159125#5 117159125#7 117159125#8 117159125#9 117159125#12 117159125#13 117159125#16 117159125#17 -1184377689 28341901#0"/>
    </vehicle>
    <vehicle id="veh17" type="veh_passenger" depart="26.30" departLane="best">
        <route edges="379748559#5 1132386478#0 1132386478#1 600354699#0 600354699#1 1309515173 1132385902#1 600354700#0 600354700#3 600354700#4 273034614#1 273034614#2 273034614#3 600354683#0 600354683#1 600354683#3 600354683#4 600354683#5 600354683#8 600354683#9 600354683#10 600354683#11 600354683#12 600354683#15 600354683#16 895416004#1 895416000#0 895416000#1 318977732#1 318977732#2 726600941#3 726600950#0 726600950#2 726600950#4 28020489#0 28020489#1 28020489#2 163546270#0 163546270#1"/>
    </vehicle>
    <vehicle id="veh18" type="veh_passenger" depart="27.85" departLane="best">
        <route edges="-68244480#0 559409911#0 559409911#1 31715374#1 559409907 559406200#0 559406200#1 559406203#1 559406203#2 559406201#0 559406201#1 726600944#2 726600944#3 726600944#4 726600944#5 28020500#2 28020500#3 28020500#4 28020500#5 28020500#6 28020500#7 28020500#8 28020500#9 28020500#10 28020500#11 28020500#12 117527607#2 117527607#3 117527607#4"/>
    </vehicle>
    <vehicle id="veh19" type="veh_passenger" depart="29.39" departLane="best">
        <route edges="206233702#1 28020494#15 28020494#16 726600944#0 -30113395#0 -559406201#0 -559406202#0 -554834984#2 -554834984#1 -554834984#0 -559409910#0 -68244484#0"/>
    </vehicle>
    <vehicle id="veh20" type="veh_passenger" depart="30.94" departLane="best">
        <route edges="-28020489#11 -28020489#10 -28020489#9 -28020489#8 -28020489#7 -28020489#6 -28020489#4 -28020489#2 -28020489#1 -28020489#0 726600950#7 726600950#8 272793963#1 927616851#1 272793958#0 272793958#1 272793958#2 272793958#5 272793958#6 662273750#0 662273750#1 662273750#4 272793960#0 272793960#1 272793960#4 272793960#6 91215107#0 91215107#1 844771822#4 844771822#6 37452624#0 37452624#1 37452624#2 37452624#3 549535051 117340984#3 117340984#4"/>
    </vehicle>
    <vehicle id="veh21" type="veh_passenger" depart="32.49" departLane="best">
        <route edges="297864033#21 273034614#1 273034614#2 273034614#3 600354683#0 600354683#1 600354683#3 600354683#4 600354683#5 600354683#8 600354683#9 600354683#10 600354683#11 600354683#12 600354683#15 600354683#16 895416004#1 895416000#0 895416000#1 318977732#1 318977732#2 726600941#3 28020500#2 28020500#3 28020500#4 28020500#5 28020500#6 28020500#7 28020500#8 28020500#9 28020500#10 28020500#11 28020500#12 117527607#2 117527607#3 117527607#4 117527607#5 117527607#6 117527607#7 117527607#8 117527607#11 117527607#12 117527607#13 1271815574#1 -163546228#5 -163546228#4 -163546228#3 -163546228#2 -163546228#1 -163546228#0 163546263#0 163546259#0"/>
    </vehicle>
    <vehicle id="veh22" type="veh_passenger" depart="34.03" departLane="best">
        <route edges="-163546270#0 -28020489#2 -28020489#1 -28020489#0 703241565#1 703241565#2 703241565#3 703241565#4 703241565#5 726600944#0 726600944#2 726600944#3 726600944#4 726600944#5 726600944#8 895416011#6 318977731#1 895416002#0 895416002#1 895416003#0 380081448#0 380081448#1 -559435595#6 -559435595#5"/>
    </vehicle>
    <vehicle id="veh23" type="veh_passenger" depart="35.58" departLane="best">
        <route edges="117340968 28341901#5 28341901#6 117340965#1 -586187413#2 -586187413#1 -586187413#0 -586187436#1 -586187436#0 -28524049#5 -28524049#4 -662249665#2 -662249665#1 -662249665#0 -844771822#11 -844771822#10 -844771822#9 -844771822#8 -91215101 91215109#4"/>
    </vehicle>
    <vehicle id="veh24" type="veh_passenger" depart="37.13" departLane="best">
        <route edges="554834983#0 554834983#4 559409913#0 559409913#1 559409913#2 559409913#4 559409913#5 559409911#0 559409911#1 559409910#0 559409910#1 554834984#1 554834984#2 554834984#3 554834984#4 554834984#5 554834984#6 554834984#8 554834984#9 554834984#10 554834984#12 554834984#13 895416003#0 380081448#0 380081448#1 380081448#4 380081448#5 380081448#6 380081448#7 380081448#8 380081448#9"/>
    </vehicle>
    <vehicle id="veh25" type="veh_passenger" depart="38.68" departLane="best">
        <route edges="37247674#0 600354699#1 1309515173 1132385902#1 600354700#0 600354700#3 600354700#4 273034614#1 273034614#2 273034614#3 600354683#0 600354683#1 600354683#3 600354683#4 600354683#5 600354683#8 600354683#9 600354683#10 600354683#11 600354683#12 600354683#15 600354683#16 895416004#1 895416000#0 895416000#1 318977732#1 318977732#2 726600941#3 726600950#0 726600950#2 -28020494#16 -28020494#15 -28020494#14 -28020494#13 -28020494#11 -28020494#10 -28020494#9 -28020494#8 -28020494#7 -28020494#6 -28484744#1 -28484744#0 28069819#8 183323061 183248190#4"/>
    </vehicle>
    <vehicle id="veh26" type="veh_passenger" depart="40.22" departLane="best">
        <route edges="977465930#8 977465930#9 683012343#0 683012343#1 683012343#2 -272793960#17 -272793960#14 -272793960#11 -272793960#10 844771822#3 844771822#4 844771822#6 844771822#7 844771822#8 844771822#9 844771822#10 844771822#11 662249665#0 662249665#1 662249665#2 -28524049#2 -28524049#1 -28524049#0 -559465488#3 -559465488#2 297864033#14"/>
    </vehicle>
    <vehicle id="veh27" type="veh_passenger" depart="41.77" departLane="best">
        <route edges="28069818#4 28069818#5 28069818#6 -28020489#2 -28020489#1 -28020489#0 726600950#7 726600950#8 272793963#1 927616851#1 272793958#0 272793958#1 272793958#2 272793958#5 272793958#6 662273750#0 662273750#1 662273750#4 272793960#0 272793960#1 272793960#4 272793960#6 91215107#0 91215107#1 844771822#4 844771822#6 844771822#7 844771822#8 844771822#9 844771822#10 844771822#11 662249665#0 662249665#1 662249665#2 662249665#4 35868092#0"/>
    </vehicle>
    <vehicle id="veh28" type="veh_passenger" depart="43.32" departLane="best">
        <route edges="662249665#7 662249665#8 662249665#11 662249665#12 600354700#0 600354700#3 600354700#4 273034614#1 273034614#2 273034614#3 600354683#0 600354683#1 600354683#3 600354683#4 600354683#5 600354683#8 600354683#9 600354683#10 600354683#11 600354683#12 -559435595#6 -559435595#5 -559435595#4 -559435595#3 -559435595#2 -559435595#1 -559435595#0 -559435591#2 -559435591#1 -559435591#0 -559409914#1"/>
    </vehicle>
    <vehicle id="veh29" type="veh_passenger" depart="44.86" departLane="best">
        <route edges="-68244480#2 -68244480#1 -68244480#0 559409911#0 559409911#1 31715374#1 559409907 559406200#0 559406200#1 559406203#1 559406203#2 559406201#0 559406201#1 726600950#2 -28020494#16 -28020494#15 -28020494#14 -28020494#13 -28020494#11 -28020494#10 -28020494#9 -28020494#8 -28020494#7 -28020494#6 -28020494#5 -28020494#4 117527607#11 117527607#12 117527607#13 1271815574#1 -163546228#5"/>
    </vehicle>
    <vehicle id="veh30" type="veh_passenger" depart="46.41" departLane="best" departSpeed="max">
        <route edges="1309504667#0 1309504666#0 -1184377689 28341901#0 28341901#1 28341901#2 28341901#5 28341901#6 28341901#9 28341901#10 28341901#11 977465930#1 977465930#2 977465930#4 117340970#1 117340970#2 272793964 117340955#0 117340955#1"/>
    </vehicle>
    <vehicle id="veh31" type="veh_passenger" depart="47.96" departLane="best">
        <route edges="-586187403#1 -586187403#0 -662249665#8 -662249665#7 -662249665#4 -662249665#2 -662249665#1 -662249665#0 -844771822#11 -844771822#10 -844771822#9 -844771822#8 -844771822#7 -844771822#6 -844771822#4 -844771822#3 -272793960#7 -272793960#6 -272793960#4 -272793960#1 -272793960#0 272793959#1 272793959#4 272793959#5 272793959#6 272793959#7 272793959#8 272793959#11 272793959#13 272793959#15 296659292#0 296659292#1 296659292#2 296659292#3 927616849#0 927616849#1 927616849#2 927616849#3 927616849#4 927616849#5 927616849#6 33883799#3 927616847#10 927616847#11 927616847#12 927616847#13 927616847#14"/>
    </vehicle>
    <vehicle id="veh32" type="veh_passenger" depart="49.50" departLane="best">
        <route edges="703241565#5 -28020494#16 -28020494#15 -28020494#14 -28020494#13 -28020494#11 28069818#0 28069818#1 28069818#2 28069818#3 28069818#4 28069818#5 28069818#6 163546270#0 163546248 28559235#9 28559235#10 1271815577#2 1271815577#3 1271815577#4 1271815577#5 1271815577#6 1271815577#7"/>
    </vehicle>
    <vehicle id="veh33" type="veh_passenger" depart="51.05" departLane="best">
        <route edges="-322577439#1 -322577439#0 559406201#1 726600950#2 726600950#4 28020489#0 28020489#1 28020489#2 28020489#4 28020489#6 28020489#7 28020489#8 163546261#0 183323144"/>
    </vehicle>
    <vehicle id="veh34" type="veh_passenger" depart="52.60" departLane="best">
        <route edges="895416011#6 318977731#1 895416002#0 895416002#1 -554834984#13 -554834984#12 -554834984#10 -554834984#9 -554834984#8 -554834984#6 -554834984#5 -554834984#4 -554834984#3 -554834984#2 -554834984#1 -554834984#0 -559409910#0 -559409911#1 -559409911#0 68244480#0 68244480#1 68244480#2 -559409914#1 -559409914#0 28957385#0 28957385#1 28957385#2 28957385#3 28957385#4 272793958#5 272793958#6 662273750#0 662273750#1 662273750#4 272793960#0 272793960#1 272793960#4"/>
    </vehicle>
    <vehicle id="veh35" type="veh_passenger" depart="54.15" departLane="best">
        <route edges="117340955#0 117340955#1 117340982#0 117340982#1 117340982#2 117340982#4 117340982#5 -844771822#4 -91215107#1 -91215107#0"/>
    </vehicle>
    <vehicle id="veh36" type="veh_passenger" depart="55.69" departLane="best">
        <route edges="28069819#12 28069819#13 28069819#14 28069819#15 28069819#16 28069819#17 28069819#18 28069819#19 703241565#5 726600944#0 726600944#2 726600944#3 726600944#4 726600944#5 726600944#8 895416011#6 318977731#1 895416002#0 895416002#1 895416003#0 380081448#0 380081448#1 380081448#4 380081448#5 380081448#6 380081448#7 380081448#8 380081448#9 380081448#12 380081448#13 380081448#14 380081448#16 600354681#0 600354681#1 600354681#2 981951787#1 380081447#0 380081447#1 1132385903#0 1132385903#1 1132385903#4 600354684#0 600354684#2 37247674#0 37247674#1 37247674#2 37247674#3 37247674#5 586187403#3 586187403#4 586187403#5 586187404#1 586192044#0 586192044#3 586192044#5 586192044#6 117159125#16"/>
    </vehicle>
    <vehicle id="veh37" type="veh_passenger" depart="57.24" departLane="best">
        <route edges="28341901#6 117340965#1 -586187413#2 -586187413#1 -586187413#0 -586187436#1 -586187436#0 -28524049#5 -28524049#4 -28524049#2 -28524049#1 -28524049#0 -559465488#3 -559465488#2 297864033#14 297864033#17 297864033#20 297864033#21 273034614#1 273034614#2 273034614#3 600354683#0 600354683#1 600354683#3 600354683#4 600354683#5 600354683#8 600354683#9 600354683#10 600354683#11 600354683#12 600354683#15 600354683#16 895416004#1 895416000#0 895416000#1 318977732#1 318977732#2 273034617#4 273034617#6 895416017#0 895416017#3 895416017#6 726600953#0 726600953#2"/>
    </vehicle>
    <vehicle id="veh38" type="veh_passenger" depart="58.79" departLane="best">
        <route edges="981951790#4 981951790#5 895416013#0 895416013#3 895416013#6 895416011#1 895416011#2 895416011#6 318977731#1 895416002#0 895416002#1 895416003#0 380081448#0 380081448#1 380081448#4 380081448#5 380081448#6 380081448#7 380081448#8 380081448#9 380081448#12 380081448#13 380081448#14 380081448#16 600354681#0 600354681#1 600354681#2 27524740#1 27524740#2 27524740#3 27524740#6 27524740#7 27524740#10 27524740#11 27524740#14 27524740#17"/>
    </vehicle>
    <vehicle id="veh39" type="veh_passenger" depart="60.33" departLane="best">
        <route edges="-268601769#2 -268601769#1 296659292#0 296659292#1 296659292#2 296659292#3 1271815577#0 1271815577#1 -28559235#10 -28559235#9 -163546270#6 -163546270#5 -163546270#3"/>
    </vehicle>
    <vehicle id="veh40" type="veh_passenger" depart="61.88" departLane="best">
        <route edges="28020494#15 28020494#16 726600944#0 -30113395#0 -559406201#0 -559406202#0 -28957389#3 -28957389#2"/>
    </vehicle>
    <vehicle id="veh41" type="veh_passenger" depart="63.43" departLane="best" departSpeed="max">
        <route edges="586187417 28341901#6 117340965#1 -586187413#2 -586187413#1 -586187413#0 -586187436#1 -586187436#0 -28524049#5 -28524049#4 -28524049#2 -28524049#1 -28524049#0 -559465488#3 -559465488#2 297864033#14 297864033#17 297864033#20 297864033#21 273034614#1 273034614#2 273034614#3 600354683#0 600354683#1 600354683#3 600354683#4 600354683#5 600354683#8 600354683#9 600354683#10 600354683#11 600354683#12 600354683#15 600354683#16 895416004#1 895416000#0 895416000#1 318977732#1 318977732#2 726600941#3 726600950#0 726600950#2 -28020494#16 -28020494#15 -28020494#14 -28020494#13 -28020494#11 28069818#0 28069818#1 28069818#2 28069819#14 28069819#15 28069819#16"/>
    </vehicle>
    <vehicle id="veh42" type="veh_passenger" depart="64.97" departLane="best">
        <route edges="981951790#1 198413487#2 198413487#3 198413487#4 28020500#12 117527607#2 117527607#3 117527607#4 117527607#5 117527607#6 117527607#7 117527607#8 117527607#11 117527607#12 117527607#13 -28020489#14 -28020489#13 -28020489#12 -28020489#11 -28020489#10 -28020489#9 -28020489#8 -28020489#7 -28020489#6 -28020489#4 -28020489#2 -28020489#1 -28020489#0"/>
    </vehicle>
    <vehicle id="veh43" type="veh_passenger" depart="66.52" departLane="best">
        <route edges="927616851#1 268601769#1 268601769#2 554834983#0 554834983#4 559409913#0 559409913#1 559409913#2 559409913#4 559409913#5 68244480#0"/>
    </vehicle>
    <vehicle id="veh44" type="veh_passenger" depart="68.07" departLane="best">
        <route edges="-163418917#1 -163418917#0 28069817#5 28069817#6 28020489#8 28020489#9 28020489#10 28020489#11 28020489#12 28020489#13 28020489#14 273248233#5 273248233#6 273248233#7 273248233#8 273248233#11 273248233#12 273248233#13 273248233#14 273248233#15 273248233#16 -28020500#12 -28020500#11 -28020500#10 -28020500#9 -28020500#8 -28020500#7 -28020500#6 -28020500#5 -28020500#4 -28020500#3 -28020500#2 726600944#8 895416011#6 318977731#1 895416002#0 895416002#1 895416003#0 380081448#0 380081448#1 380081448#4 380081448#5 380081448#6 380081448#7 380081448#8 380081448#9 380081448#12 380081448#13 380081448#14 380081448#16"/>
    </vehicle>
    <vehicle id="veh45" type="veh_passenger" depart="69.62" departLane="best">
        <route edges="35868097#2 35868097#3 33884440#4 33884440#5 33884440#6 91215094 662249664#1 27524740#24 27524740#26 27524740#27 27524740#28 272793959#1 272793959#4 272793959#5 272793959#6 272793959#7 272793959#8 272793959#11 272793959#13 272793959#15 296659292#0 296659292#1 296659292#2 296659292#3 1271815577#0 1271815577#1 1271815577#2 1271815577#3 1271815577#4 1271815577#5 1271815577#6 1271815577#7 28020489#0 28020489#1 28020489#2 28020489#4 28020489#6 28020489#7 28020489#8 28020489#9"/>
    </vehicle>
    <vehicle id="veh46" type="veh_passenger" depart="71.16" departLane="best">
        <route edges="117340968 28341901#5 28341901#6 117340965#1 -586187413#2 -586187413#1 -586187413#0 -586187436#1 -586187436#0 -28524049#5 -28524049#4 -28524049#2 -28524049#1 -28524049#0 -559465488#3 -559465488#2 297864033#14 297864033#17"/>
    </vehicle>
    <vehicle id="veh47" type="veh_passenger" depart="72.71" departLane="best">
        <route edges="-28020494#5 -28020494#4 117527607#11 117527607#12 117527607#13 -28020489#14 -28020489#13 -28020489#12 -28020489#11 -28020489#10 -28020489#9 -28020489#8 -28020489#7 -28020489#6 -28020489#4 -28020489#2 -28020489#1 -28020489#0 726600950#7 726600950#8 272793963#1 927616851#1 268601769#1"/>
    </vehicle>
    <vehicle id="veh48" type="veh_passenger" depart="74.26" departLane="best">
        <route edges="272793959#8 272793959#11 272793959#13 272793959#15 296659292#0 296659292#1 296659292#2 296659292#3 927616849#0 927616849#1 927616849#2 927616849#3 927616849#4 927616849#5 927616849#6 927616849#7 927616849#8 927616847#7 927616847#8 927616847#9"/>
    </vehicle>
    <vehicle id="veh49" type="veh_passenger" depart="75.80" departLane="best">
        <route edges="703241565#5 726600944#0 726600944#2 726600944#3 726600944#4 726600944#5 726600944#8 895416011#6 318977731#1 895416002#0 895416002#1 895416003#0 380081448#0 380081448#1 380081448#4 380081448#5 380081448#6 380081448#7 380081448#8 380081448#9 380081448#12 380081448#13 380081448#14 380081448#16 600354681#0 600354681#1 600354681#2 981951787#1 380081447#0 380081447#1 1132385903#0 1132385903#1 1132385903#4 600354684#0 600354684#2 37247674#0 37247674#1 37247674#2 37247674#3 37247674#5 586187403#3 586187403#4 586187403#5 586187404#1 586192044#0 586192044#3 586192044#5 586192044#6 117159125#16 117159125#17"/>
    </vehicle>
    <vehicle id="veh50" type="veh_passenger" depart="77.35" departLane="best">
        <route edges="27427949#1 27427949#2 35868088#4 35868088#5 35868088#6 -37247674#3 -37247674#2 -37247674#1 600354699#1 1309515173 1132385902#1 600354700#0 600354700#3 600354700#4 273034614#1 273034614#2 273034614#3 600354683#0 600354683#1 600354683#3 600354683#4 600354683#5 600354683#8 600354683#9 600354683#10 600354683#11 600354683#12 600354683#15 600354683#16 895416004#1 -554834984#13 -554834984#12"/>
    </vehicle>
    <vehicle id="veh51" type="veh_passenger" depart="78.90" departLane="best">
        <route edges="895416011#1 895416011#2 895416011#6 318977731#1 895416002#0 895416002#1 895416003#0 380081448#0 380081448#1 380081448#4 380081448#5 380081448#6 380081448#7 380081448#8 380081448#9 380081448#12 380081448#13 380081448#14 380081448#16 600354681#0 600354681#1 600354681#2 27524740#1 27524740#2 27524740#3 27524740#6 27524740#7 27524740#10 27524740#11 559465488#2 559465488#3 559465488#4 28524049#1 28524049#2 28524049#4 28524049#5 586187436#0 586187436#1 586187413#0 586187413#1 586187413#2 586187413#4 28341901#9 28341901#10 28341901#11 977465930#1 977465930#2 977465930#4 977465930#7 977465930#8 977465930#9 683012343#0 683012343#1"/>
    </vehicle>
    <vehicle id="veh52" type="veh_passenger" depart="80.44" departLane="best">
        <route edges="1271815574#3 1271815574#4 1271815574#5 927616847#2 927616847#3 927616847#4 927616847#7 927616847#8 927616847#9 927616847#10 927616847#11 927616847#12 927616847#13 927616847#14 927616847#15 927616847#16 272793963#1 927616851#1 272793958#0 272793958#1 272793958#2 272793958#5 272793958#6 662273750#0 662273750#1 662273750#4 297864033#0 297864033#1 297864033#3 297864033#4 297864033#7 297864033#10 297864033#11 297864033#14"/>
    </vehicle>
    <vehicle id="veh53" type="veh_passenger" depart="81.99" departLane="best">
        <route edges="559409913#1 559409913#2 559409913#4 559409913#5 559409911#0 559409911#1 31715374#1 559409907 559406200#0 559406200#1 559406203#1 559406203#2 559406201#0 559406201#1 726600950#2 -28020494#16 -28020494#15 -28020494#14"/>
    </vehicle>
    <vehicle id="veh54" type="veh_passenger" depart="83.54" departLane="best">
        <route edges="586187402#1 -28524052#2 297864033#20 297864033#21 273034614#1 273034614#2 273034614#3 600354683#0 600354683#1 600354683#3 600354683#4 600354683#5 600354683#8 600354683#9 600354683#10 600354683#11 600354683#12 600354683#15 600354683#16 895416004#1 895416000#0 895416000#1 318977732#1 318977732#2 726600941#3 28020500#2 28020500#3 28020500#4 28020500#5 28020500#6 28020500#7 28020500#8 28020500#9 28020500#10 28020500#11 28020500#12 117527607#2 117527607#3 117527607#4 117527607#5 117527607#6 117527607#7 117527607#8 117527607#11 117527607#12 117527607#13 -28020489#14 -28020489#13 -28020489#12 -28020489#11 -28020489#10"/>
    </vehicle>
    <vehicle id="veh55" type="veh_passenger" depart="85.09" departLane="best">
        <route edges="-1132385904#0 -662249665#11 -662249665#8 -662249665#7 -662249665#4 -662249665#2 -662249665#1 -662249665#0 -844771822#11 -844771822#10 -844771822#9 -844771822#8 -844771822#7 37452624#0 37452624#1 37452624#2 37452624#3 549535051 117340984#3 -459195546 1309504668#22 1309504668#23"/>
    </vehicle>
    <vehicle id="veh56" type="veh_passenger" depart="86.63" departLane="best">
        <route edges="-163418931#1 927616847#12 927616847#13 927616847#14 927616847#15 927616847#16 272793963#1 927616851#1 272793958#0 272793958#1 272793958#2 272793958#5 272793958#6 662273750#0 662273750#1 662273750#4 272793960#0 272793960#1 272793960#4 37247672#0 37247672#1 37247672#2 91215088#0 91215088#1 91215088#2"/>
    </vehicle>
    <vehicle id="veh57" type="veh_passenger" depart="88.18" departLane="best">