<?xml version="1.0" encoding="UTF-8"?>

<!-- generated on 2025-02-26 15:30:10 by Eclipse SUMO netedit Version v1_21_0+1021-4606c0d7274
-->

<routes xmlns:xsi="http://www.w3.org/2001/XMLSchema-instance" xsi:noNamespaceSchemaLocation="http://sumo.dlr.de/xsd/routes_file.xsd">
    <!-- VTypes -->
    <vType id="veh_passenger" vClass="passenger"/>
    <vType id="emergency" vClass="emergency" color="white"/>
    <!-- Vehicles, persons and containers (sorted by depart) -->
    <trip id="veh1" type="veh_passenger" depart="3.63" departLane="best" from="117340982#4" to="586187403#4"/>
    <trip id="veh2" type="veh_passenger" depart="7.27" departLane="best" from="554834984#5" to="35868096#1"/>
    <trip id="veh4" type="veh_passenger" depart="14.54" departLane="best" from="220729997#0" to="-163418934#2"/>
    <trip id="veh5" type="veh_passenger" depart="18.17" departLane="best" from="-163418932#0" to="-554834984#8"/>
    <trip id="veh6" type="veh_passenger" depart="21.81" departLane="best" from="34634618#3" to="28020494#9"/>
    <trip id="veh7" type="veh_passenger" depart="25.44" departLane="best" from="91215094" to="28484744#2"/>
    <trip id="veh8" type="veh_passenger" depart="29.07" departLane="best" departSpeed="max" from="600354688" to="117340968"/>
    <trip id="veh9" type="veh_passenger" depart="32.71" departLane="best" from="927616849#4" to="1309515173"/>
    <trip id="veh11" type="veh_passenger" depart="39.98" departLane="best" from="600354684#4" to="486142436"/>
    <trip id="veh12" type="veh_passenger" depart="43.61" departLane="best" from="28020500#4" to="977465930#1"/>
    <trip id="veh13" type="veh_passenger" depart="47.25" departLane="best" from="-183248412#4" to="28069817#1"/>
    <trip id="veh14" type="veh_passenger" depart="50.88" departLane="best" from="272793959#1" to="28957385#4"/>
    <trip id="veh15" type="veh_passenger" depart="54.51" departLane="best" from="703241565#1" to="28341901#10"/>
    <trip id="veh16" type="veh_passenger" depart="58.15" departLane="best" from="600354683#12" to="-163546262#6"/>
    <trip id="veh17" type="veh_passenger" depart="61.78" departLane="best" from="-68244482#1" to="117340984#4"/>
    <trip id="veh18" type="veh_passenger" depart="65.42" departLane="best" from="202548530#2" to="-662249665#1"/>
    <trip id="veh19" type="veh_passenger" depart="69.05" departLane="best" from="-272793965" to="117159125#7"/>
    <trip id="veh20" type="veh_passenger" depart="72.69" departLane="best" from="31715377#1" to="163546228#4"/>
    <trip id="veh21" type="veh_passenger" depart="76.32" departLane="best" from="173232779#1" to="559409913#2"/>
    <trip id="veh22" type="veh_passenger" depart="79.95" departLane="best" from="117159125#5" to="927616847#14"/>
    <trip id="veh23" type="veh_passenger" depart="83.59" departLane="best" from="33884440#4" to="28824076#8"/>
    <trip id="veh25" type="veh_passenger" depart="90.86" departLane="best" from="-37247674#1" to="163546270#5"/>
    <trip id="veh26" type="veh_passenger" depart="94.49" departLane="best" from="600354700#4" to="30454393#1"/>
    <trip id="veh27" type="veh_passenger" depart="98.13" departLane="best" from="28069819#6" to="37452626#5"/>
    <trip id="veh28" type="veh_passenger" depart="101.76" departLane="best" from="683012343#1" to="586187402#4"/>
    <trip id="veh29" type="veh_passenger" depart="105.39" departLane="best" from="-586187403#1" to="927616847#4"/>
    <trip id="veh31" type="veh_passenger" depart="112.66" departLane="best" from="35868088#5" to="183248792#4"/>
    <trip id="veh32" type="veh_passenger" depart="116.30" departLane="best" from="91215092#1" to="272793959#7"/>
    <trip id="veh34" type="veh_passenger" depart="123.57" departLane="best" from="28559235#0" to="895416011#6"/>
    <trip id="veh35" type="veh_passenger" depart="127.20" departLane="best" from="202548522#0" to="-559435595#6"/>
    <trip id="veh36" type="veh_passenger" depart="130.84" departLane="best" from="981951790#5" to="27524740#11"/>
    <trip id="veh37" type="veh_passenger" depart="134.47" departLane="best" from="-220729997#0" to="-163546262#8"/>
    <trip id="veh38" type="veh_passenger" depart="138.10" departLane="best" from="-28020489#6" to="297864033#1"/>
    <trip id="veh39" type="veh_passenger" depart="141.74" departLane="best" from="600354683#1" to="202640208#4"/>
    <trip id="veh41" type="veh_passenger" depart="149.01" departLane="best" from="981951790#2" to="277160216#1"/>
    <trip id="veh42" type="veh_passenger" depart="152.64" departLane="best" from="977465928#7" to="726600941#3"/>
    <trip id="veh44" type="veh_passenger" depart="159.91" departLane="best" from="37452624#1" to="28020489#8"/>
    <trip id="veh45" type="veh_passenger" depart="163.54" departLane="best" from="117159125#5" to="31715308#0"/>
    <trip id="veh47" type="veh_passenger" depart="170.81" departLane="best" from="272793964" to="927616849#3"/>
    <trip id="veh50" type="veh_passenger" depart="181.72" departLane="best" from="91215088#0" to="726600950#4"/>
    <trip id="veh53" type="veh_passenger" depart="192.62" departLane="best" from="559435595#5" to="-28020494#11"/>
    <trip id="veh54" type="veh_passenger" depart="196.25" departLane="best" from="586187433#0" to="28020489#0"/>
    <trip id="veh57" type="veh_passenger" depart="207.16" departLane="best" from="726600950#8" to="662273749#2"/>
    <trip id="veh58" type="veh_passenger" depart="210.79" departLane="best" from="1271815577#4" to="183248190#4"/>
    <trip id="veh59" type="veh_passenger" depart="214.42" departLane="best" from="726600950#7" to="927616849#0"/>
    <trip id="veh60" type="veh_passenger" depart="218.06" departLane="best" from="-206233703#0" to="273248233#5"/>
    <trip id="veh61" type="veh_passenger" depart="221.69" departLane="best" from="-183323144" to="559409913#1"/>
    <trip id="veh62" type="veh_passenger" depart="225.33" departLane="best" from="586187402#0" to="-28020500#6"/>
    <trip id="veh63" type="veh_passenger" depart="228.96" departLane="best" from="273248233#8" to="-28020500#7"/>
    <trip id="veh64" type="veh_passenger" depart="232.60" departLane="best" from="117159125#13" to="726600950#7"/>
    <trip id="veh65" type="veh_passenger" depart="236.23" departLane="best" from="-559409913#4" to="1271815574#3"/>
    <trip id="veh66" type="veh_passenger" depart="239.86" departLane="best" from="981951790#2" to="318977732#1"/>
    <trip id="veh67" type="veh_passenger" depart="243.50" departLane="best" from="-28020500#3" to="586187413#0"/>
    <trip id="veh68" type="veh_passenger" depart="247.13" departLane="best" from="-163418917#7" to="28484744#0"/>
    <trip id="veh69" type="veh_passenger" depart="250.77" departLane="best" from="-272793960#10" to="-559465488#3"/>
    <trip id="veh72" type="veh_passenger" depart="261.67" departLane="best" from="-91215088#2" to="35868089#14"/>
    <trip id="veh73" type="veh_passenger" depart="265.30" departLane="best" from="-586187413#0" to="28069818#2"/>
    <trip id="veh74" type="veh_passenger" depart="268.94" departLane="best" from="927616847#10" to="28069819#8"/>
    <trip id="veh75" type="veh_passenger" depart="272.57" departLane="best" from="273248233#6" to="586187415"/>
    <trip id="veh76" type="veh_passenger" depart="276.21" departLane="best" from="600354684#4" to="-554834984#12"/>
    <trip id="veh77" type="veh_passenger" depart="279.84" departLane="best" from="220729998" to="272793964"/>
    <trip id="veh78" type="veh_passenger" depart="283.48" departLane="best" from="554834984#10" to="35868090"/>
    <trip id="veh80" type="veh_passenger" depart="290.74" departLane="best" from="202548528#0" to="1309515174#3"/>
    <trip id="veh81" type="veh_passenger" depart="294.38" departLane="best" from="726600950#4" to="-91215088#0"/>
    <trip id="veh82" type="veh_passenger" depart="298.01" departLane="best" from="-554834984#9" to="272793958#5"/>
    <trip id="veh83" type="veh_passenger" depart="301.65" departLane="best" from="220729997#0" to="117159125#8"/>
    <trip id="veh84" type="veh_passenger" depart="305.28" departLane="best" from="272793959#5" to="726600944#0"/>
    <trip id="veh85" type="veh_passenger" depart="308.92" departLane="best" from="28069819#12" to="163546270#3"/>
    <trip id="veh89" type="veh_passenger" depart="323.45" departLane="best" from="273924630#1" to="-559435591#0"/>
    <trip id="veh90" type="veh_passenger" depart="327.09" departLane="best" from="-202548525#0" to="-183248374#0"/>
    <trip id="veh92" type="veh_passenger" depart="334.36" departLane="best" from="273034614#2" to="202640209#0"/>
    <trip id="veh93" type="veh_passenger" depart="337.99" departLane="best" from="927616849#4" to="981951790#2"/>
    <trip id="veh94" type="veh_passenger" depart="341.62" departLane="best" from="28069819#4" to="41203181#0"/>
    <trip id="veh95" type="veh_passenger" depart="345.26" departLane="best" from="-30454393#1" to="117527607#13"/>
    <trip id="veh96" type="veh_passenger" depart="348.89" departLane="best" from="977465928#2" to="273924630#0"/>
    <trip id="veh97" type="veh_passenger" depart="352.53" departLane="best" from="28069817#5" to="559406199#0"/>
    <trip id="veh98" type="veh_passenger" depart="356.16" departLane="best" from="183248374#3" to="28341901#6"/>
    <trip id="veh99" type="veh_passenger" depart="359.80" departLane="best" from="27524740#18" to="977465928#0"/>
    <trip id="veh100" type="veh_passenger" depart="363.43" departLane="best" from="-322577439#0" to="927616851#1"/>
    <trip id="veh101" type="veh_passenger" depart="367.06" departLane="best" from="202548530#2" to="554834983#4"/>
    <trip id="veh102" type="veh_passenger" depart="370.70" departLane="best" from="28824076#9" to="35868092#0"/>
    <trip id="veh103" type="veh_passenger" depart="374.33" departLane="best" from="-844780298#0" to="-28020494#15"/>
    <trip id="veh104" type="veh_passenger" depart="377.97" departLane="best" from="219782276" to="28341901#5"/>
    <trip id="veh105" type="veh_passenger" depart="381.60" departLane="best" from="28020489#14" to="927616847#12"/>
    <trip id="veh106" type="veh_passenger" depart="385.24" departLane="best" from="559435591#1" to="380081448#9"/>
    <trip id="veh108" type="veh_passenger" depart="392.51" departLane="best" from="37247674#1" to="117527607#4"/>
    <trip id="veh109" type="veh_passenger" depart="396.14" departLane="best" from="1309504668#10" to="559406201#1"/>
    <trip id="veh113" type="veh_passenger" depart="410.68" departLane="best" from="117159125#16" to="927616847#11"/>
    <trip id="veh115" type="veh_passenger" depart="417.95" departLane="best" from="68244478#1" to="380081448#0"/>
    <trip id="veh117" type="veh_passenger" depart="425.21" departLane="best" from="600354700#3" to="117527607#4"/>
    <trip id="veh118" type="veh_passenger" depart="428.85" departLane="best" from="35868089#9" to="927616849#0"/>
    <trip id="veh119" type="veh_passenger" depart="432.48" departLane="best" from="-28484744#8" to="-28020489#7"/>
    <trip id="veh120" type="veh_passenger" depart="436.12" departLane="best" from="117340970#2" to="28824076#10"/>
    <trip id="veh122" type="veh_passenger" depart="443.39" departLane="best" from="31715311" to="1132385902#1"/>
    <trip id="veh124" type="veh_passenger" depart="450.65" departLane="best" from="683012343#2" to="-219782274"/>
    <trip id="veh125" type="veh_passenger" depart="454.29" departLane="best" from="220729998" to="117159125#2"/>
    <trip id="veh128" type="veh_passenger" depart="465.19" departLane="best" from="559406199#1" to="28069817#1"/>
    <trip id="veh129" type="veh_passenger" depart="468.83" departLane="best" from="-202548522#0" to="-844771822#3"/>
    <trip id="veh130" type="veh_passenger" depart="472.46" departLane="best" from="68244478#2" to="28341901#5"/>
    <trip id="veh131" type="veh_passenger" depart="476.09" departLane="best" from="-28957381#2" to="-28020500#4"/>
    <trip id="veh132" type="veh_passenger" depart="479.73" departLane="best" from="1271815577#4" to="895416013#0"/>
    <trip id="veh133" type="veh_passenger" depart="483.36" departLane="best" from="600354683#15" to="726600941#3"/>
    <trip id="veh134" type="veh_passenger" depart="487.00" departLane="best" from="895416004#1" to="-559409913#2"/>
    <trip id="veh136" type="veh_passenger" depart="494.27" departLane="best" from="586187435#1" to="-844771822#6"/>
    <trip id="veh137" type="veh_passenger" depart="497.90" departLane="best" departSpeed="max" from="202548532#0" to="28957389#6"/>
    <trip id="veh139" type="veh_passenger" depart="505.17" departLane="best" from="703241565#4" to="977465930#4"/>
    <trip id="veh140" type="veh_passenger" depart="508.80" departLane="best" departSpeed="max" from="600354688" to="-844771822#10"/>
    <trip id="veh141" type="veh_passenger" depart="512.44" departLane="best" from="-163418931#2" to="554834984#10"/>
    <trip id="veh143" type="veh_passenger" depart="519.71" departLane="best" from="600354683#8" to="726600944#3"/>
    <trip id="veh146" type="veh_passenger" depart="530.61" departLane="best" from="380081448#4" to="586187436#1"/>
    <trip id="veh147" type="veh_passenger" depart="534.24" departLane="best" from="-163418929#1" to="-554834984#2"/>
    <trip id="veh148" type="veh_passenger" depart="537.88" departLane="best" from="1309515174#2" to="726600944#3"/>
    <trip id="veh149" type="veh_passenger" depart="541.51" departLane="best" from="977465928#1" to="117159125#9"/>
    <trip id="veh150" type="veh_passenger" depart="545.15" departLane="best" from="318977732#1" to="183323061"/>
    <trip id="veh151" type="veh_passenger" depart="548.78" departLane="best" from="977465930#8" to="28020489#7"/>
    <trip id="veh152" type="veh_passenger" depart="552.41" departLane="best" from="927616847#14" to="-28020489#7"/>
    <trip id="veh154" type="veh_passenger" depart="559.68" departLane="best" from="927616851#1" to="1132385903#0"/>
    <trip id="veh155" type="veh_passenger" depart="563.32" departLane="best" from="-28020489#2" to="220729997#3"/>
    <trip id="veh156" type="veh_passenger" depart="566.95" departLane="best" from="554834984#1" to="1271815574#5"/>
    <trip id="veh157" type="veh_passenger" depart="570.59" departLane="best" from="927616851#1" to="297864033#10"/>
    <trip id="veh158" type="veh_passenger" depart="574.22" departLane="best" from="183248817#2" to="28341901#1"/>
    <trip id="veh159" type="veh_passenger" depart="577.85" departLane="best" from="1132385902#1" to="600354683#0"/>
    <trip id="veh161" type="veh_passenger" depart="585.12" departLane="best" from="559406199#2" to="35868089#3"/>
    <trip id="veh162" type="veh_passenger" depart="588.76" departLane="best" from="35868091#2" to="1309504668#20"/>
    <trip id="veh163" type="veh_passenger" depart="592.39" departLane="best" departSpeed="max" from="1309504667#0" to="683012343#0"/>
    <trip id="veh164" type="veh_passenger" depart="596.03" departLane="best" from="453043774#0" to="117527607#4"/>
    <trip id="veh165" type="veh_passenger" depart="599.66" departLane="best" from="1271815577#5" to="202548487#1"/>
    <trip id="veh166" type="veh_passenger" depart="603.29" departLane="best" from="202548528#0" to="117527607#12"/>
    <trip id="veh167" type="veh_passenger" depart="606.93" departLane="best" from="-28069818#4" to="202640208#1"/>
    <trip id="veh168" type="veh_passenger" depart="610.56" departLane="best" from="927616847#15" to="35868097#1"/>
    <trip id="veh170" type="veh_passenger" depart="617.83" departLane="best" from="1271815574#4" to="-28020500#3"/>
    <trip id="veh172" type="veh_passenger" depart="625.10" departLane="best" from="268601769#1" to="28341901#11"/>
    <trip id="veh173" type="veh_passenger" depart="628.73" departLane="best" from="35868088#3" to="-272793960#6"/>
    <trip id="veh174" type="veh_passenger" depart="632.37" departLane="best" from="272793959#4" to="559409916#1"/>
    <trip id="veh175" type="veh_passenger" depart="636.00" departLane="best" from="273248233#6" to="895416013#6"/>
    <trip id="veh176" type="veh_passenger" depart="639.64" departLane="best" from="380081448#1" to="-37247672#1"/>
    <trip id="veh177" type="veh_passenger" depart="643.27" departLane="best" from="206233702#0" to="27524740#20"/>
    <trip id="veh178" type="veh_passenger" depart="646.91" departLane="best" from="31715308#0" to="1309504668#8"/>
    <trip id="veh179" type="veh_passenger" depart="650.54" departLane="best" from="600354700#4" to="559406201#0"/>
    <trip id="veh180" type="veh_passenger" depart="654.18" departLane="best" from="37247674#3" to="-586187413#0"/>
    <trip id="veh181" type="veh_passenger" depart="657.81" departLane="best" from="-559409913#1" to="-163418929#0"/>
    <trip id="veh184" type="veh_passenger" depart="668.71" departLane="best" from="206233701" to="27524740#14"/>
    <trip id="veh185" type="veh_passenger" depart="672.35" departLane="best" from="559409910#0" to="1309504666#0"/>
    <trip id="veh186" type="veh_passenger" depart="675.98" departLane="best" from="273924630#9" to="-844771822#4"/>
    <trip id="veh187" type="veh_passenger" depart="679.62" departLane="best" from="35868088#6" to="117340959#1"/>
    <trip id="veh188" type="veh_passenger" depart="683.25" departLane="best" from="559409913#0" to="559435595#3"/>
    <trip id="veh189" type="veh_passenger" depart="686.88" departLane="best" from="-28020489#12" to="-206233699"/>
    <trip id="veh190" type="veh_passenger" depart="690.52" departLane="best" from="-554834983#0" to="927616849#6"/>
    <trip id="veh191" type="veh_passenger" depart="694.15" departLane="best" from="-272793960#0" to="-163546270#3"/>
    <trip id="veh193" type="veh_passenger" depart="701.42" departLane="best" from="273034614#3" to="600354683#11"/>
    <trip id="veh195" type="veh_passenger" depart="708.69" departLane="best" from="28824076#9" to="927616849#12"/>
    <trip id="veh198" type="veh_passenger" depart="719.59" departLane="best" from="68244475#2" to="28020500#3"/>
    <trip id="veh201" type="veh_passenger" depart="730.50" departLane="best" from="586187402#0" to="27524740#26"/>
    <trip id="veh202" type="veh_passenger" depart="734.13" departLane="best" from="297864033#4" to="117159125#12"/>
    <trip id="veh203" type="veh_passenger" depart="737.76" departLane="best" from="-202548525#1" to="117340982#4"/>
    <trip id="veh204" type="veh_passenger" depart="741.40" departLane="best" from="117340970#1" to="1271815577#4"/>
    <trip id="veh205" type="veh_passenger" depart="745.03" departLane="best" from="28069817#2" to="-28484744#4"/>
    <trip id="veh206" type="veh_passenger" depart="748.67" departLane="best" from="600354683#10" to="-183248489"/>
    <trip id="veh207" type="veh_passenger" depart="752.30" departLane="best" departSpeed="max" from="202548532#0" to="28020494#5"/>
    <trip id="veh208" type="veh_passenger" depart="755.94" departLane="best" from="206233702#1" to="-559409913#0"/>
    <trip id="veh209" type="veh_passenger" depart="759.57" departLane="best" from="219782282" to="895416017#6"/>
    <trip id="veh210" type="veh_passenger" depart="763.20" departLane="best" from="28559210#1" to="37452626#5"/>
    <trip id="veh212" type="veh_passenger" depart="770.47" departLane="best" from="183248792#0" to="117340970#1"/>
    <trip id="veh213" type="veh_passenger" depart="774.11" departLane="best" from="163546228#1" to="559406204#1"/>
    <trip id="veh215" type="veh_passenger" depart="781.38" departLane="best" from="219782276" to="554834985"/>
    <trip id="veh216" type="veh_passenger" depart="785.01" departLane="best" from="28069818#4" to="-28559235#7"/>
    <trip id="veh217" type="veh_passenger" depart="788.64" departLane="best" from="-662249664#0" to="-559465488#2"/>
    <trip id="veh218" type="veh_passenger" depart="792.28" departLane="best" from="272793959#8" to="-163418934#1"/>
    <trip id="veh219" type="veh_passenger" depart="795.91" departLane="best" from="163418917#4" to="37247672#0"/>
    <trip id="veh220" type="veh_passenger" depart="799.55" departLane="best" from="202548530#1" to="322577439#0"/>
    <trip id="veh221" type="veh_passenger" depart="803.18" departLane="best" from="117527607#1" to="-28020500#4"/>
    <trip id="veh222" type="veh_passenger" depart="806.82" departLane="best" from="27524740#7" to="-163418931#3"/>
    <trip id="veh224" type="veh_passenger" depart="814.08" departLane="best" from="-163418932#1" to="31715374#1"/>
    <trip id="veh225" type="veh_passenger" depart="817.72" departLane="best" from="-28524049#2" to="272793960#1"/>
    <trip id="veh227" type="veh_passenger" depart="824.99" departLane="best" from="-586187403#2" to="1309504668#11"/>
    <trip id="veh228" type="veh_passenger" depart="828.62" departLane="best" from="-559435595#2" to="163546270#3"/>
    <trip id="veh230" type="veh_passenger" depart="835.89" departLane="best" from="-163418917#8" to="28020494#11"/>
    <trip id="veh232" type="veh_passenger" depart="843.16" departLane="best" from="34634618#3" to="586187413#2"/>
    <trip id="veh233" type="veh_passenger" depart="846.79" departLane="best" from="35868088#10" to="-559409910#0"/>
    <trip id="veh234" type="veh_passenger" depart="850.43" departLane="best" from="927616849#0" to="-554834984#9"/>
    <trip id="veh236" type="veh_passenger" depart="857.70" departLane="best" from="-28069818#2" to="35868089#14"/>
    <trip id="veh237" type="veh_passenger" depart="861.33" departLane="best" from="28341901#10" to="-559435595#4"/>
    <trip id="veh238" type="veh_passenger" depart="864.96" departLane="best" from="380081448#1" to="-559435591#1"/>
    <trip id="veh240" type="veh_passenger" depart="872.23" departLane="best" from="559409910#1" to="-28020489#4"/>
    <trip id="veh241" type="veh_passenger" depart="875.87" departLane="best" from="662249664#1" to="977465928#1"/>
    <trip id="veh242" type="veh_passenger" depart="879.50" departLane="best" from="-28020489#14" to="-163418931#1"/>
    <trip id="veh243" type="veh_passenger" depart="883.14" departLane="best" from="1309504666#0" to="35868097#1"/>
    <trip id="veh244" type="veh_passenger" depart="886.77" departLane="best" from="927616849#5" to="183248809"/>
    <trip id="veh245" type="veh_passenger" depart="890.40" departLane="best" from="-272793967" to="-559465488#2"/>
    <trip id="veh248" type="veh_passenger" depart="901.31" departLane="best" from="586187435#5" to="-163418917#5"/>
    <trip id="veh249" type="veh_passenger" depart="904.94" departLane="best" from="258091333#8" to="163546259#0"/>
    <trip id="veh252" type="veh_passenger" depart="915.85" departLane="best" from="-28020489#10" to="927616851#1"/>
    <trip id="veh253" type="veh_passenger" depart="919.48" departLane="best" from="31715377#1" to="662249665#7"/>
    <trip id="veh254" type="veh_passenger" depart="923.11" departLane="best" from="600354683#10" to="-220729998"/>
    <trip id="veh255" type="veh_passenger" depart="926.75" departLane="best" from="554834984#3" to="977465928#1"/>
    <trip id="veh256" type="veh_passenger" depart="930.38" departLane="best" from="117340959#1" to="600354683#5"/>
    <trip id="veh257" type="veh_passenger" depart="934.02" departLane="best" from="28020500#7" to="273248233#18"/>
    <trip id="veh259" type="veh_passenger" depart="941.29" departLane="best" from="117159125#9" to="683012343#2"/>
    <trip id="veh260" type="veh_passenger" depart="944.92" departLane="best" from="68244475#2" to="-206233698"/>
    <trip id="veh261" type="veh_passenger" depart="948.55" departLane="best" from="726600953#2" to="-844771822#4"/>
    <trip id="veh262" type="veh_passenger" depart="952.19" departLane="best" from="117527607#6" to="28957381#0"/>
    <trip id="veh263" type="veh_passenger" depart="955.82" departLane="best" from="-28020494#7" to="-163418932#1"/>
    <trip id="veh265" type="veh_passenger" depart="963.09" departLane="best" from="-586187403#3" to="600354683#0"/>
    <trip id="veh266" type="veh_passenger" depart="966.73" departLane="best" from="380081448#13" to="117159125#17"/>
    <trip id="veh269" type="veh_passenger" depart="977.63" departLane="best" from="273924630#2" to="-559409911#1"/>
    <trip id="veh271" type="veh_passenger" depart="984.90" departLane="best" from="-260697552" to="-586187403#1"/>
    <trip id="veh273" type="veh_passenger" depart="992.17" departLane="best" from="28524052#2" to="273034619#2"/>
    <trip id="veh274" type="veh_passenger" depart="995.80" departLane="best" from="28020494#5" to="-206233700"/>
    <trip id="veh275" type="veh_passenger" depart="999.43" departLane="best" from="559409907" to="1309504668#21"/>
    <trip id="veh276" type="veh_passenger" depart="1003.07" departLane="best" from="380081448#14" to="1132386480#0"/>
    <trip id="veh278" type="veh_passenger" depart="1010.34" departLane="best" from="28957389#6" to="-28020494#14"/>
    <trip id="veh279" type="veh_passenger" depart="1013.97" departLane="best" from="-28020500#3" to="-559409913#2"/>
    <trip id="veh281" type="veh_passenger" depart="1021.24" departLane="best" from="977465930#4" to="27524740#3"/>
    <trip id="veh282" type="veh_passenger" depart="1024.87" departLane="best" from="117527607#11" to="272793960#0"/>
    <trip id="veh283" type="veh_passenger" depart="1028.51" departLane="best" from="559409910#0" to="586187436#1"/>
    <trip id="veh284" type="veh_passenger" depart="1032.14" departLane="best" from="-554834984#1" to="-163418916#2"/>
    <trip id="veh285" type="veh_passenger" depart="1035.78" departLane="best" from="-28020500#11" to="117159125#12"/>
    <trip id="veh286" type="veh_passenger" depart="1039.41" departLane="best" from="977465930#1" to="28069817#4"/>
    <trip id="veh287" type="veh_passenger" depart="1043.05" departLane="best" from="380081447#1" to="-28020500#2"/>
    <trip id="veh289" type="veh_passenger" depart="1050.31" departLane="best" from="726600944#5" to="28341901#0"/>
    <trip id="veh290" type="veh_passenger" depart="1053.95" departLane="best" from="273248233#2" to="258091333#8"/>
    <trip id="veh291" type="veh_passenger" depart="1057.58" departLane="best" from="-554834984#2" to="-163546270#6"/>
    <trip id="veh292" type="veh_passenger" depart="1061.22" departLane="best" from="927616847#15" to="273248233#13"/>
    <trip id="veh293" type="veh_passenger" depart="1064.85" departLane="best" from="-662249665#2" to="188517870"/>
    <trip id="veh295" type="veh_passenger" depart="1072.12" departLane="best" from="-183248190#0" to="-28559235#2"/>
    <trip id="veh296" type="veh_passenger" depart="1075.75" departLane="best" from="28341901#1" to="117527607#7"/>
    <trip id="veh297" type="veh_passenger" depart="1079.39" departLane="best" from="981951790#0" to="28020494#11"/>
    <trip id="veh298" type="veh_passenger" depart="1083.02" departLane="best" from="559465488#3" to="28824076#3"/>
    <trip id="veh299" type="veh_passenger" depart="1086.66" departLane="best" from="380081448#16" to="586187413#2"/>
    <trip id="veh300" type="veh_passenger" depart="1090.29" departLane="best" from="-28020489#14" to="662273750#4"/>
    <trip id="veh301" type="veh_passenger" depart="1093.93" departLane="best" from="272793959#4" to="726600941#3"/>
    <trip id="veh303" type="veh_passenger" depart="1101.19" departLane="best" from="297864033#14" to="28824076#8"/>
    <trip id="veh304" type="veh_passenger" depart="1104.83" departLane="best" from="-554834985" to="927616849#0"/>
    <trip id="veh305" type="veh_passenger" depart="1108.46" departLane="best" from="-559435595#4" to="-559409913#4"/>
    <trip id="veh306" type="veh_passenger" depart="1112.10" departLane="best" from="35868089#2" to="-28957381#5"/>
    <trip id="veh309" type="veh_passenger" depart="1123.00" departLane="best" from="28824076#6" to="117340984#9"/>
    <trip id="veh310" type="veh_passenger" depart="1126.63" departLane="best" from="844771822#11" to="600354683#4"/>
    <trip id="veh311" type="veh_passenger" depart="1130.27" departLane="best" from="600354683#3" to="272793959#15"/>
    <trip id="veh313" type="veh_passenger" depart="1137.54" departLane="best" from="273034614#3" to="296659292#3"/>
    <trip id="veh314" type="veh_passenger" depart="1141.17" departLane="best" from="35868089#3" to="927616847#11"/>
    <trip id="veh317" type="veh_passenger" depart="1152.07" departLane="best" from="272793959#6" to="-183249712"/>
    <trip id="veh319" type="veh_passenger" depart="1159.34" departLane="best" from="559409911#0" to="28069819#5"/>
    <trip id="veh321" type="veh_passenger" depart="1166.61" departLane="best" from="927616847#2" to="273924630#5"/>
    <trip id="veh322" type="veh_passenger" depart="1170.25" departLane="best" from="28341901#2" to="-202548523#1"/>
    <trip id="veh323" type="veh_passenger" depart="1173.88" departLane="best" from="-163546259#0" to="-219782282"/>
    <trip id="veh326" type="veh_passenger" depart="1184.78" departLane="best" from="68244480#0" to="28341901#1"/>
    <trip id="veh328" type="veh_passenger" depart="1192.05" departLane="best" from="-163546259#1" to="-554834984#0"/>
    <trip id="veh329" type="veh_passenger" depart="1195.69" departLane="best" from="273248233#3" to="895416011#6"/>
    <trip id="veh331" type="veh_passenger" depart="1202.96" departLane="best" from="28559235#1" to="297864033#21"/>
    <trip id="veh332" type="veh_passenger" depart="1206.59" departLane="best" from="273924630#5" to="-206233703#2"/>
    <trip id="veh333" type="veh_passenger" depart="1210.22" departLane="best" from="163418938#0" to="1309504668#25"/>
    <trip id="veh334" type="veh_passenger" depart="1213.86" departLane="best" from="-37247672#1" to="703241565#3"/>
    <trip id="veh335" type="veh_passenger" depart="1217.49" departLane="best" from="1319201423" to="37452624#3"/>
    <trip id="veh336" type="veh_passenger" depart="1221.13" departLane="best" from="117527607#4" to="927616847#8"/>
    <trip id="veh337" type="veh_passenger" depart="1224.76" departLane="best" from="600354699#0" to="28020500#7"/>
    <trip id="veh339" type="veh_passenger" depart="1232.03" departLane="best" from="1309504668#5" to="977465928#7"/>